/*--------------------------------*- C++ -*----------------------------------*\
  =========                 |
  \\      /  F ield         | OpenFOAM: The Open Source CFD Toolbox
   \\    /   O peration     | Website:  https://openfoam.org
    \\  /    A nd           | Version:  12
     \\/     M anipulation  |
\*---------------------------------------------------------------------------*/
FoamFile
{
    format      ascii;
    class       featureEdgeMesh;
    location    "constant/triSurface";
    object      rocket.eMesh;
}
// * * * * * * * * * * * * * * * * * * * * * * * * * * * * * * * * * * * * * //


// points:

1276
(
(3.195844889 -0.07100216299 -0.1227898002)
(3.195842981 -0.07098025084 -0.1228025034)
(3.239402056 -0.07025214285 0.1232229024)
(3.239377022 -0.07024589181 0.123226501)
(3.195844889 -0.0708380267 0.1228846014)
(3.195842981 -0.07086075842 0.1228715032)
(4.804673154e-05 8.212320245e-05 -5.742613212e-06)
(4.804673154e-05 7.399207971e-05 -3.608834959e-05)
(2.480664079e-05 4.163317135e-05 -2.808192949e-05)
(2.829412006e-05 4.052112126e-05 -3.778655082e-05)
(5.484751091e-05 3.405752068e-05 -8.429532318e-05)
(4.202743003e-05 2.301304085e-05 -7.082684169e-05)
(4.804673154e-05 2.269149991e-05 -7.913464651e-05)
(4.804673154e-05 1.145725037e-05 -8.152255759e-05)
(3.225745968e-05 -2.485436926e-05 -5.582382073e-05)
(4.202743003e-05 -3.264626866e-05 -6.693475734e-05)
(3.679724978e-05 -3.371272032e-05 -5.839215009e-05)
(4.202743003e-05 -4.164407073e-05 -6.17398764e-05)
(2.480664079e-05 -4.802436888e-05 -1.468251958e-05)
(2.829412006e-05 -4.979825826e-05 -2.428823063e-05)
(3.679724978e-05 -5.95331403e-05 -3.165433009e-05)
(3.679724978e-05 -6.59520374e-05 -1.401854024e-05)
(4.202743003e-05 -7.158683729e-05 -2.052720083e-05)
(4.804673154e-05 -3.083901174e-05 7.632922643e-05)
(4.202743003e-05 -2.301304085e-05 7.082684169e-05)
(4.804673154e-05 1.145725037e-05 8.152255759e-05)
(4.202743003e-05 5.17324188e-05 5.35704894e-05)
(4.804673154e-05 5.291667912e-05 6.30636423e-05)
(4.202743003e-05 3.496236968e-05 6.575464795e-05)
(4.804673154e-05 4.362492837e-05 6.981448678e-05)
(3.225745968e-05 -4.088841888e-05 -4.541119051e-05)
(3.225745968e-05 -4.943642125e-05 -3.591765926e-05)
(4.202743003e-05 -4.983133113e-05 5.534329102e-05)
(4.202743003e-05 5.194885944e-06 7.429034304e-05)
(4.804673154e-05 -1.991590943e-05 -7.987837307e-05)
(4.804673154e-05 -5.068354949e-05 6.487198698e-05)
(5.484751091e-05 6.964526256e-05 5.843932013e-05)
(3.195844889 0.1418402046 -9.475352272e-05)
(3.195842981 0.1418402046 -6.946455687e-05)
(3.103328943 -0.02564557083 0.04449377954)
(3.131829977 0.05857089907 0.002988809953)
(4.804673154e-05 7.913464651e-05 2.269149991e-05)
(4.202743003e-05 7.082684169e-05 2.301304085e-05)
(5.484751091e-05 8.821485972e-05 2.199443043e-05)
(5.484751091e-05 8.305538358e-05 -3.69786394e-05)
(4.202743003e-05 6.803333235e-05 -3.029038999e-05)
(3.679724978e-05 5.010687164e-05 -4.511643056e-05)
(4.804673154e-05 3.348408063e-05 -7.520647341e-05)
(4.202743003e-05 3.264626866e-05 -6.693475734e-05)
(4.202743003e-05 7.784416994e-06 -7.406377699e-05)
(5.484751091e-05 6.341940207e-06 -9.069396765e-05)
(3.679724978e-05 -5.010687164e-05 -4.511643056e-05)
(4.804673154e-05 -5.291667912e-05 -6.30636423e-05)
(1.663033072e-05 -3.452329111e-05 -1.394830997e-05)
(4.202743003e-05 -6.803333235e-05 -3.029038999e-05)
(4.804673154e-05 -7.987837307e-05 -1.991590943e-05)
(2.829412006e-05 -5.519481056e-05 -4.828919828e-06)
(1.13738397e-05 -2.370997026e-05 1.481562958e-05)
(6.898066204e-06 -1.473108023e-05 1.192898981e-05)
(5.484751091e-05 -3.405752068e-05 8.429532318e-05)
(4.804673154e-05 -1.991590943e-05 7.987837307e-05)
(4.202743003e-05 -1.293187961e-05 7.334035763e-05)
(5.484751091e-05 3.405752068e-05 8.429532318e-05)
(4.316540981e-06 -4.417153832e-06 1.213602991e-05)
(5.484751091e-05 -2.199443043e-05 8.821485972e-05)
(2.480664079e-05 -3.957286026e-05 -3.09177085e-05)
(4.202743003e-05 7.406377699e-05 -7.784416994e-06)
(4.202743003e-05 -1.293187961e-05 -7.334035763e-05)
(4.202743003e-05 -4.164407073e-05 6.17398764e-05)
(5.484751091e-05 9.00306477e-05 -1.265298033e-05)
(5.484751091e-05 -1.890237945e-05 -8.892871847e-05)
(5.484751091e-05 -5.597313066e-05 7.16423383e-05)
(4.202743003e-05 -5.17324188e-05 -5.35704894e-05)
(3.195842981 -0.0708835125 -0.1228583008)
(3.195842981 -0.0709566921 -0.1228161007)
(3.211482048 -0.06864106655 -0.1241530031)
(3.196732998 -0.0702336207 -0.1232334971)
(3.225575924 -0.06839043647 -0.1242977008)
(3.216160059 -0.06839043647 -0.1242977008)
(3.239312887 -0.0702336207 -0.1232334971)
(3.228883982 -0.06864106655 -0.1241530031)
(3.211482048 -0.07319912314 -0.1215213984)
(3.196732998 -0.07160657644 -0.1224408969)
(3.211904049 -0.06859765202 -0.1241780967)
(3.21213007 -0.06857611239 -0.1241905019)
(3.211550951 -0.07320652157 -0.1215170994)
(3.211904049 -0.07324253768 -0.1214962974)
(3.21232605 -0.06855835021 -0.1242007986)
(3.212198973 -0.0732704699 -0.1214801967)
(3.212781906 -0.06852065027 -0.1242225021)
(3.21232605 -0.07328183949 -0.1214736998)
(3.213174105 -0.06849207729 -0.1242389977)
(3.212852001 -0.0733249113 -0.1214488)
(3.212749958 -0.07331704348 -0.1214533001)
(3.213438988 -0.06847483665 -0.1242489964)
(3.213174105 -0.0733481124 -0.1214353964)
(3.213598967 -0.06846514344 -0.1242545992)
(3.214025021 -0.06844232231 -0.1242676973)
(3.213598967 -0.0733750537 -0.1214198023)
(3.213509083 -0.07336966693 -0.1214229017)
(3.214025021 -0.07339786738 -0.1214066967)
(3.214097977 -0.06843884289 -0.1242697984)
(3.214169025 -0.07340463251 -0.1214028001)
(3.214452028 -0.06842365116 -0.1242785007)
(3.214452028 -0.07341655344 -0.1213959008)
(3.214761019 -0.06841272116 -0.1242847964)
(3.214832067 -0.07342966646 -0.1213883013)
(3.214879036 -0.06840912253 -0.1242868975)
(3.214879036 -0.07343106717 -0.1213874966)
(3.215306044 -0.06839873642 -0.1242929026)
(3.215496063 -0.07344473153 -0.121379599)
(3.215306044 -0.07344145328 -0.1213814989)
(3.215424061 -0.06839659065 -0.124294199)
(3.215733051 -0.06839252263 -0.1242965013)
(3.215733051 -0.07344768196 -0.1213779002)
(3.216160059 -0.07344975322 -0.1213767007)
(3.21608901 -0.06839050353 -0.1242977008)
(3.225908041 -0.06839294732 -0.1242963001)
(3.22623992 -0.0684004873 -0.1242918968)
(3.22657299 -0.06841304898 -0.1242846996)
(3.226905107 -0.06843061745 -0.1242744997)
(3.227236032 -0.06845322251 -0.1242614985)
(3.227566957 -0.06848081201 -0.1242455021)
(3.227896929 -0.0685134083 -0.1242266968)
(3.2282269 -0.06855098903 -0.1242050007)
(3.228555918 -0.06859354675 -0.1241803989)
(3.239942074 -0.0708835125 -0.1228583008)
(3.239942074 -0.0709566921 -0.1228161007)
(3.239942074 -0.07087212801 -0.122864902)
(3.239326 -0.07023569196 -0.1232322976)
(3.239337921 -0.07023795694 -0.1232310012)
(3.239351034 -0.07024040818 -0.1232296005)
(3.239363909 -0.07024306059 -0.1232281029)
(3.239377022 -0.07024589181 -0.123226501)
(3.239388943 -0.07024891675 -0.123224698)
(3.239402056 -0.07025214285 -0.1232229024)
(3.239413977 -0.07025554031 -0.1232208982)
(3.23942709 -0.07025913149 -0.1232187971)
(3.239439011 -0.07026290148 -0.1232165992)
(3.239451885 -0.07026687264 -0.1232144013)
(3.239464045 -0.07027100772 -0.1232120022)
(3.239475965 -0.07027532905 -0.1232094988)
(3.239487886 -0.07027983665 -0.1232068986)
(3.239500046 -0.07028452307 -0.1232042015)
(3.239511967 -0.0702893883 -0.1232013032)
(3.239523888 -0.07029441744 -0.1231983975)
(3.239535093 -0.0702996403 -0.1231954023)
(3.239547014 -0.07030502707 -0.1231923029)
(3.239557981 -0.07031059265 -0.1231890991)
(3.239569902 -0.07031630725 -0.1231857985)
(3.239581108 -0.07032222301 -0.1231824011)
(3.239592075 -0.07032828033 -0.1231788993)
(3.239603043 -0.07033450902 -0.1231753007)
(3.23961401 -0.07034090161 -0.1231715977)
(3.239624977 -0.07034745812 -0.1231677979)
(3.239634991 -0.0703541711 -0.1231639013)
(3.239645958 -0.07036104798 -0.1231599972)
(3.239655972 -0.07036806643 -0.1231558993)
(3.239665985 -0.07037524879 -0.1231518015)
(3.239675999 -0.07038258016 -0.1231475025)
(3.239686012 -0.07039006054 -0.1231432036)
(3.239696026 -0.07039768994 -0.1231388003)
(3.239706039 -0.07040546089 -0.1231343001)
(3.239715099 -0.07041337341 -0.1231298)
(3.239723921 -0.07042142004 -0.1231250986)
(3.239732981 -0.07042960823 -0.1231203973)
(3.239742041 -0.07043793797 -0.1231155992)
(3.239751101 -0.07044638693 -0.1231106967)
(3.239759922 -0.07045497745 -0.1231056973)
(3.239768028 -0.07046368718 -0.123100698)
(3.239777088 -0.07047253102 -0.1230956018)
(3.239784956 -0.07048148662 -0.1230904013)
(3.239793062 -0.07049057633 -0.1230852008)
(3.239799976 -0.07049977034 -0.1230799034)
(3.239808083 -0.07050908357 -0.1230745018)
(3.239814997 -0.0705185011 -0.1230691001)
(3.239821911 -0.07052803785 -0.1230636016)
(3.239829063 -0.07053767145 -0.1230579987)
(3.239835978 -0.07054740936 -0.1230524033)
(3.239842892 -0.07055725157 -0.1230467036)
(3.239849091 -0.0705671832 -0.1230409965)
(3.239855051 -0.07057721168 -0.1230351999)
(3.239861012 -0.07058733702 -0.1230292991)
(3.239866972 -0.07059753686 -0.1230233982)
(3.239872932 -0.07060784101 -0.1230174974)
(3.239877939 -0.07061821222 -0.1230114996)
(3.239882946 -0.07062867284 -0.1230055019)
(3.239887953 -0.07063920051 -0.1229993999)
(3.23989296 -0.07064980268 -0.1229932979)
(3.239897013 -0.07066047192 -0.122987099)
(3.23990202 -0.0706712231 -0.1229809001)
(3.239906073 -0.070682019 -0.1229747012)
(3.239909887 -0.07069286704 -0.122968398)
(3.239912987 -0.07070379704 -0.1229621023)
(3.23991704 -0.07071475685 -0.1229557991)
(3.239919901 -0.07072579116 -0.1229493991)
(3.239923 -0.07073686272 -0.122942999)
(3.2399261 -0.07074797153 -0.122936599)
(3.239928961 -0.0707591325 -0.1229301021)
(3.239931107 -0.07077030838 -0.122923702)
(3.239933014 -0.0707815364 -0.1229171976)
(3.239934921 -0.07079278678 -0.1229107007)
(3.239937067 -0.07080406696 -0.1229041964)
(3.239938021 -0.07081536949 -0.1228976995)
(3.239938974 -0.07082668692 -0.1228910983)
(3.239939928 -0.0708380416 -0.1228846014)
(3.239940882 -0.07084938884 -0.1228780001)
(3.239942074 -0.07086075842 -0.1228715032)
(3.239942074 -0.07096806169 -0.1228094995)
(3.239942074 -0.07097943872 -0.1228030026)
(3.239940882 -0.07099080086 -0.1227964014)
(3.239939928 -0.07100216299 -0.1227898002)
(3.239938974 -0.07101350278 -0.1227833033)
(3.239938021 -0.07102482021 -0.122776702)
(3.239937067 -0.07103612274 -0.1227701977)
(3.239934921 -0.07104740292 -0.1227637008)
(3.239933014 -0.07105866075 -0.1227571964)
(3.239931107 -0.07106988132 -0.1227506995)
(3.239928961 -0.07108107209 -0.1227442995)
(3.2399261 -0.07109223306 -0.1227378026)
(3.239923 -0.07110332698 -0.1227314025)
(3.239919901 -0.07111441344 -0.1227250025)
(3.23991704 -0.07112543285 -0.1227186993)
(3.239912987 -0.0711364001 -0.1227122992)
(3.239909887 -0.07114732265 -0.1227060035)
(3.239906073 -0.07115817815 -0.1226997972)
(3.23990202 -0.07116898149 -0.1226935014)
(3.239897013 -0.07117971778 -0.1226873025)
(3.23989296 -0.07119038701 -0.1226812005)
(3.239887953 -0.07120098919 -0.1226750016)
(3.239882946 -0.07121151686 -0.1226689965)
(3.239877939 -0.07122197747 -0.1226629019)
(3.239872932 -0.07123236358 -0.1226568967)
(3.239866972 -0.07124265283 -0.1226510033)
(3.239861012 -0.07125285268 -0.1226451024)
(3.239855051 -0.07126297802 -0.1226392016)
(3.239849091 -0.0712730065 -0.1226335019)
(3.239842892 -0.07128295302 -0.1226276979)
(3.239835978 -0.07129278034 -0.1226219982)
(3.239829063 -0.07130251825 -0.1226164028)
(3.239821911 -0.0713121593 -0.1226108968)
(3.239814997 -0.07132168859 -0.1226053983)
(3.239808083 -0.07133111358 -0.1225998998)
(3.239799976 -0.07134041935 -0.1225944981)
(3.239793062 -0.07134962082 -0.1225892007)
(3.239784956 -0.07135870308 -0.1225840002)
(3.239777088 -0.07136765867 -0.1225787997)
(3.239768028 -0.07137650251 -0.1225737035)
(3.239759922 -0.07138521224 -0.1225686967)
(3.239751101 -0.07139380276 -0.1225636974)
(3.239742041 -0.07140225917 -0.1225588024)
(3.239732981 -0.07141058147 -0.1225539967)
(3.239723921 -0.07141876966 -0.1225493029)
(3.239715099 -0.07142681628 -0.1225446984)
(3.239706039 -0.0714347437 -0.1225401014)
(3.239696026 -0.07144250721 -0.1225356013)
(3.239686012 -0.07145012915 -0.122531198)
(3.239675999 -0.07145760953 -0.122526899)
(3.239665985 -0.07146494091 -0.1225226)
(3.239655972 -0.07147212327 -0.1225185022)
(3.239645958 -0.07147914916 -0.1225143969)
(3.239634991 -0.0714860186 -0.1225105003)
(3.239624977 -0.07149273157 -0.1225066036)
(3.23961401 -0.07149928808 -0.1225027964)
(3.239603043 -0.07150568068 -0.1224991009)
(3.239592075 -0.07151190937 -0.1224955022)
(3.239581108 -0.07151796669 -0.1224920005)
(3.239569902 -0.07152386755 -0.122488603)
(3.239557981 -0.07152959704 -0.1224853024)
(3.239547014 -0.07153516263 -0.1224820986)
(3.239535093 -0.0715405494 -0.1224789992)
(3.239523888 -0.07154575735 -0.1224759966)
(3.239326 -0.07160451263 -0.1224420965)
(3.239312887 -0.07160657644 -0.1224408969)
(3.239511967 -0.07155080885 -0.1224730983)
(3.239500046 -0.07155566663 -0.1224702969)
(3.239475965 -0.07156486064 -0.1224649996)
(3.239464045 -0.07156918198 -0.1224625036)
(3.239487886 -0.07156035304 -0.1224675998)
(3.239451885 -0.07157331705 -0.1224600971)
(3.239439011 -0.07157728821 -0.1224578023)
(3.23942709 -0.07158107311 -0.1224555969)
(3.239413977 -0.07158464938 -0.1224535033)
(3.239402056 -0.07158804685 -0.1224516034)
(3.239388943 -0.07159127295 -0.1224497035)
(3.239377022 -0.07159429789 -0.1224479973)
(3.239363909 -0.07159713656 -0.1224462986)
(3.239351034 -0.07159978151 -0.122444801)
(3.239337921 -0.0716022402 -0.1224434003)
(3.228883982 -0.07319912314 -0.1215213984)
(3.228555918 -0.07324664295 -0.1214940026)
(3.2282269 -0.07328920066 -0.1214694008)
(3.225908041 -0.07344724238 -0.1213781983)
(3.225575924 -0.07344975322 -0.1213767007)
(3.22623992 -0.07343970984 -0.1213824973)
(3.227896929 -0.07332678139 -0.1214476973)
(3.227566957 -0.07335937768 -0.1214288995)
(3.227236032 -0.07338696718 -0.1214129999)
(3.226905107 -0.07340957224 -0.1213999018)
(3.22657299 -0.07342714816 -0.1213897988)
(3.196715117 -0.07160451263 -0.1224420965)
(3.196696997 -0.07023794949 -0.1232310012)
(3.19671011 -0.07023625076 -0.1232319996)
(3.196679115 -0.07024040818 -0.1232296005)
(3.196696997 -0.0716022402 -0.1224434003)
(3.196681976 -0.07160027325 -0.122444503)
(3.196660042 -0.07024320215 -0.1232279986)
(3.196656942 -0.07159657776 -0.1224465966)
(3.196643114 -0.07159429789 -0.1224479973)
(3.196624994 -0.07159127295 -0.1224497035)
(3.196624994 -0.07024891675 -0.123224698)
(3.196635008 -0.07024720311 -0.1232256964)
(3.196607113 -0.07025214285 -0.1232229024)
(3.196607113 -0.07158804685 -0.1224516034)
(3.196585894 -0.07025618106 -0.1232205033)
(3.196583986 -0.07158348709 -0.1224542037)
(3.196572065 -0.07158107311 -0.1224555969)
(3.196553946 -0.07157728821 -0.1224578023)
(3.196537018 -0.07026687264 -0.1232144013)
(3.196562052 -0.0702611506 -0.1232177019)
(3.196536064 -0.07157319784 -0.1224600971)
(3.196518898 -0.07156918943 -0.1224625036)
(3.19650197 -0.07027532905 -0.1232094988)
(3.196516037 -0.07027196139 -0.1232113987)
(3.196485043 -0.07027983665 -0.1232068986)
(3.19650197 -0.07156486064 -0.1224649996)
(3.196490049 -0.07156176865 -0.1224666983)
(3.196468115 -0.07028452307 -0.1232042015)
(3.196468115 -0.07155565917 -0.1224702969)
(3.196450949 -0.07155080885 -0.1224730983)
(3.196434975 -0.07029441744 -0.1231983975)
(3.196450949 -0.07028938085 -0.1232014)
(3.196434975 -0.07154577225 -0.1224759966)
(3.196424961 -0.07154271752 -0.1224777028)
(3.196402073 -0.07030502707 -0.1231923029)
(3.196418047 -0.07029963285 -0.1231954023)
(3.196402073 -0.07153517008 -0.1224820986)
(3.196386099 -0.07152959704 -0.1224853024)
(3.196386099 -0.07031053305 -0.1231890991)
(3.196369886 -0.07152388245 -0.122488603)
(3.196353912 -0.07032220811 -0.1231824011)
(3.196366072 -0.07031770796 -0.1231850013)
(3.196337938 -0.07032827288 -0.1231788993)
(3.196353912 -0.07151798159 -0.1224920005)
(3.196337938 -0.07151191682 -0.1224955022)
(3.196326971 -0.07033260167 -0.1231764033)
(3.196321964 -0.07150568068 -0.1224991009)
(3.196306944 -0.07034090161 -0.1231715977)
(3.196306944 -0.07149907947 -0.1225029007)
(3.196289062 -0.07149122655 -0.1225074977)
(3.196273088 -0.070356071 -0.1231629029)
(3.196290016 -0.07034810632 -0.123167403)
(3.196276903 -0.0714860335 -0.1225105003)
(3.196261883 -0.07036104053 -0.1231599972)
(3.196248055 -0.07036806643 -0.1231558993)
(3.196254015 -0.07147517055 -0.1225166991)
(3.196233034 -0.07037524134 -0.1231518015)
(3.196233034 -0.07146494836 -0.1225226)
(3.196223021 -0.07038062811 -0.1231487021)
(3.196218967 -0.07145761698 -0.122526899)
(3.196204901 -0.07039006054 -0.1231432036)
(3.196204901 -0.07145029306 -0.1225311011)
(3.196190119 -0.07144180685 -0.1225360036)
(3.196175098 -0.07143328339 -0.1225408986)
(3.196163893 -0.07142681628 -0.1225446016)
(3.196151018 -0.07141877711 -0.1225493029)
(3.196132898 -0.07140731812 -0.1225558966)
(3.19611311 -0.07139380276 -0.1225636974)
(3.19609499 -0.07138100266 -0.1225711033)
(3.196077108 -0.07136767358 -0.1225787997)
(3.196060896 -0.07135447115 -0.1225863993)
(3.196043968 -0.0713404268 -0.1225944981)
(3.196028948 -0.07132787257 -0.1226017997)
(3.196019888 -0.07131900638 -0.1226069033)
(3.19601202 -0.0713121593 -0.1226108968)
(3.196002007 -0.07130131125 -0.1226171032)
(3.195992947 -0.07129248232 -0.1226221994)
(3.195983887 -0.07128295302 -0.1226276979)
(3.195976019 -0.07127484679 -0.1226323992)
(3.195969105 -0.07126607001 -0.1226375028)
(3.195956945 -0.07125286013 -0.1226451024)
(3.195946932 -0.07123983651 -0.1226525977)
(3.195940018 -0.07123114169 -0.1226575971)
(3.195934057 -0.07122197747 -0.1226629019)
(3.195928097 -0.07121381909 -0.1226676032)
(3.195919991 -0.07120099664 -0.1226750016)
(3.195910931 -0.07118801028 -0.1226824969)
(3.195905924 -0.07117971778 -0.1226873025)
(3.195900917 -0.07117093354 -0.1226923987)
(3.195897102 -0.07116241753 -0.1226973012)
(3.195892096 -0.07115395367 -0.1227022037)
(3.195888042 -0.07114549726 -0.1227070987)
(3.195883989 -0.0711364001 -0.1227122992)
(3.195875883 -0.0711202696 -0.1227215976)
(3.195873022 -0.07111190259 -0.1227265)
(3.195869923 -0.07110332698 -0.1227314025)
(3.195863962 -0.07108694315 -0.122740902)
(3.195858955 -0.07107038051 -0.1227504015)
(3.195854902 -0.07105389237 -0.1227599978)
(3.195851088 -0.07103745639 -0.1227694973)
(3.195848942 -0.07102482021 -0.122776702)
(3.195847034 -0.07101350278 -0.1227833033)
(3.195842981 -0.07096806169 -0.1228094995)
(3.195842981 -0.07087212801 -0.122864902)
(3.195842981 -0.07086075842 -0.1228715032)
(3.195843935 -0.07085092366 -0.1228772029)
(3.195844889 -0.0708380267 -0.1228846014)
(3.195847034 -0.0708264336 -0.1228912994)
(3.195848942 -0.07081536949 -0.1228976995)
(3.195851088 -0.07080184668 -0.1229055002)
(3.195856094 -0.0707815364 -0.1229171976)
(3.195858955 -0.07077030838 -0.122923702)
(3.195862055 -0.07076065987 -0.1229292974)
(3.195866108 -0.07074795663 -0.122936599)
(3.195869923 -0.07073686272 -0.122942999)
(3.195873022 -0.07072739303 -0.1229484975)
(3.195877075 -0.07071903348 -0.1229533032)
(3.195883989 -0.07070379704 -0.1229621023)
(3.195888042 -0.07069379091 -0.1229678988)
(3.195893049 -0.07068532705 -0.122972697)
(3.195897102 -0.07067686319 -0.1229775995)
(3.195902109 -0.07066834718 -0.1229825988)
(3.195911884 -0.070651263 -0.1229923964)
(3.195916891 -0.07064268738 -0.1229974031)
(3.195925951 -0.07062867284 -0.1230055019)
(3.195934057 -0.07061821222 -0.1230114996)
(3.195940971 -0.07060811669 -0.1230173036)
(3.195947886 -0.07059940696 -0.1230223998)
(3.195955038 -0.07059068978 -0.1230273992)
(3.195961952 -0.0705819428 -0.1230323985)
(3.195969105 -0.07057318091 -0.1230375022)
(3.195976973 -0.07056438923 -0.1230425984)
(3.195983887 -0.07055723667 -0.1230467036)
(3.195992947 -0.07054740936 -0.1230524033)
(3.196002007 -0.07053793222 -0.1230577976)
(3.19601202 -0.07052908838 -0.1230629981)
(3.19602108 -0.07052022964 -0.1230681017)
(3.196031094 -0.0705113709 -0.1230731979)
(3.196041107 -0.07050249726 -0.1230783015)
(3.196054935 -0.07049056888 -0.1230852008)
(3.196065903 -0.07048148662 -0.1230904013)
(3.196077108 -0.07047252357 -0.1230956018)
(3.196089029 -0.07046368718 -0.123100698)
(3.19610095 -0.07045497 -0.1231056973)
(3.196109056 -0.07044945657 -0.1231089011)
(3.196125984 -0.07043793052 -0.1231155992)
(3.196135044 -0.07043194026 -0.1231189966)
(3.196147919 -0.07042325288 -0.1231241003)
(3.196161985 -0.07041460276 -0.1231290996)
(3.196177006 -0.07040599734 -0.1231340021)
(3.196191072 -0.07039768994 -0.1231388003)
(3.196572065 -0.07025911659 -0.1232187971)
(3.195842981 -0.0709566921 0.1228161007)
(3.195842981 -0.0708835125 0.1228583008)
(3.211482048 -0.07319912314 0.1215213984)
(3.196732998 -0.07160657644 0.1224408969)
(3.225575924 -0.07344975322 0.1213767007)
(3.216160059 -0.07344975322 0.1213767007)
(3.239312887 -0.07160657644 0.1224408969)
(3.228883982 -0.07319912314 0.1215213984)
(3.225908041 -0.07344724238 0.1213781983)
(3.22623992 -0.07343970984 0.1213824973)
(3.22657299 -0.07342714816 0.1213897988)
(3.226905107 -0.07340957224 0.1213999018)
(3.227236032 -0.07338696718 0.1214129999)
(3.227566957 -0.07335937768 0.1214288995)
(3.227896929 -0.07332678139 0.1214476973)
(3.2282269 -0.07328920066 0.1214694008)
(3.228555918 -0.07324664295 0.1214940026)
(3.239942074 -0.07096806169 0.1228094995)
(3.239942074 -0.0709566921 0.1228161007)
(3.239942074 -0.07097943872 0.1228030026)
(3.239326 -0.07160451263 0.1224420965)
(3.239337921 -0.0716022402 0.1224434003)
(3.239351034 -0.07159978151 0.122444801)
(3.239363909 -0.07159713656 0.1224462986)
(3.239377022 -0.07159429789 0.1224479973)
(3.239388943 -0.07159127295 0.1224497035)
(3.239402056 -0.07158804685 0.1224516034)
(3.239413977 -0.07158464938 0.1224535033)
(3.23942709 -0.07158107311 0.1224555969)
(3.239439011 -0.07157728821 0.1224578023)
(3.239547014 -0.07153516263 0.1224820986)
(3.239557981 -0.07152959704 0.1224853024)
(3.239451885 -0.07157331705 0.1224600971)
(3.239464045 -0.07156918198 0.1224625036)
(3.239475965 -0.07156486064 0.1224649996)
(3.239487886 -0.07156035304 0.1224675998)
(3.239500046 -0.07155566663 0.1224702969)
(3.239523888 -0.07154575735 0.1224759966)
(3.239535093 -0.0715405494 0.1224789992)
(3.239511967 -0.07155080885 0.1224730983)
(3.239569902 -0.07152386755 0.122488603)
(3.239581108 -0.07151796669 0.1224920005)
(3.239592075 -0.07151190937 0.1224955022)
(3.239603043 -0.07150568068 0.1224991009)
(3.23961401 -0.07149928808 0.1225027964)
(3.239624977 -0.07149273157 0.1225066036)
(3.239634991 -0.0714860186 0.1225105003)
(3.239645958 -0.07147914916 0.1225143969)
(3.239655972 -0.07147212327 0.1225185022)
(3.239665985 -0.07146494091 0.1225226)
(3.239675999 -0.07145760953 0.122526899)
(3.239686012 -0.07145012915 0.122531198)
(3.239696026 -0.07144250721 0.1225356013)
(3.239706039 -0.0714347437 0.1225401014)
(3.239715099 -0.07142681628 0.1225446984)
(3.239723921 -0.07141876966 0.1225493029)
(3.239732981 -0.07141058147 0.1225539967)
(3.239742041 -0.07140225917 0.1225588024)
(3.239751101 -0.07139380276 0.1225636974)
(3.239759922 -0.07138521224 0.1225686967)
(3.239768028 -0.07137650251 0.1225737035)
(3.239777088 -0.07136765867 0.1225787997)
(3.239784956 -0.07135870308 0.1225840002)
(3.239793062 -0.07134962082 0.1225892007)
(3.239799976 -0.07134041935 0.1225944981)
(3.239808083 -0.07133111358 0.1225998998)
(3.239814997 -0.07132168859 0.1226053983)
(3.239821911 -0.0713121593 0.1226108968)
(3.239829063 -0.07130251825 0.1226164028)
(3.239835978 -0.07129278034 0.1226219982)
(3.239842892 -0.07128295302 0.1226276979)
(3.239849091 -0.0712730065 0.1226335019)
(3.239855051 -0.07126297802 0.1226392016)
(3.239861012 -0.07125285268 0.1226451024)
(3.239866972 -0.07124265283 0.1226510033)
(3.239872932 -0.07123236358 0.1226568967)
(3.239877939 -0.07122197747 0.1226629019)
(3.239882946 -0.07121151686 0.1226689965)
(3.239887953 -0.07120098919 0.1226750016)
(3.23989296 -0.07119038701 0.1226812005)
(3.239897013 -0.07117971778 0.1226873025)
(3.23990202 -0.07116898149 0.1226935014)
(3.239906073 -0.07115817815 0.1226997972)
(3.239909887 -0.07114732265 0.1227060035)
(3.239912987 -0.0711364001 0.1227122992)
(3.23991704 -0.07112543285 0.1227186993)
(3.239919901 -0.07111441344 0.1227250025)
(3.239923 -0.07110332698 0.1227314025)
(3.2399261 -0.07109223306 0.1227378026)
(3.239928961 -0.07108107209 0.1227442995)
(3.239931107 -0.07106988132 0.1227506995)
(3.239933014 -0.07105866075 0.1227571964)
(3.239934921 -0.07104740292 0.1227637008)
(3.239937067 -0.07103612274 0.1227701977)
(3.239938021 -0.07102482021 0.122776702)
(3.239938974 -0.07101350278 0.1227833033)
(3.239939928 -0.07100216299 0.1227898002)
(3.239940882 -0.07099080086 0.1227964014)
(3.239942074 -0.0708835125 0.1228583008)
(3.225575924 -0.06839043647 0.1242977008)
(3.216160059 -0.06839043647 0.1242977008)
(3.228883982 -0.06864106655 0.1241530031)
(3.228555918 -0.06859354675 0.1241803989)
(3.2282269 -0.06855098903 0.1242050007)
(3.239942074 -0.07087212801 0.122864902)
(3.239942074 -0.07086075842 0.1228715032)
(3.239940882 -0.07084938884 0.1228780001)
(3.239939928 -0.0708380416 0.1228846014)
(3.239938974 -0.07082668692 0.1228910983)
(3.239938021 -0.07081536949 0.1228976995)
(3.239937067 -0.07080406696 0.1229041964)
(3.239934921 -0.07079278678 0.1229107007)
(3.239933014 -0.0707815364 0.1229171976)
(3.239931107 -0.07077030838 0.122923702)
(3.239928961 -0.0707591325 0.1229301021)
(3.2399261 -0.07074797153 0.122936599)
(3.239923 -0.07073686272 0.122942999)
(3.239919901 -0.07072579116 0.1229493991)
(3.23991704 -0.07071475685 0.1229557991)
(3.239912987 -0.07070379704 0.1229621023)
(3.239909887 -0.07069286704 0.122968398)
(3.239906073 -0.070682019 0.1229747012)
(3.23990202 -0.0706712231 0.1229809001)
(3.239897013 -0.07066047192 0.122987099)
(3.23989296 -0.07064980268 0.1229932979)
(3.239887953 -0.07063920051 0.1229993999)
(3.239882946 -0.07062867284 0.1230055019)
(3.239877939 -0.07061821222 0.1230114996)
(3.239872932 -0.07060784101 0.1230174974)
(3.239866972 -0.07059753686 0.1230233982)
(3.239861012 -0.07058733702 0.1230292991)
(3.239855051 -0.07057721168 0.1230351999)
(3.239849091 -0.0705671832 0.1230409965)
(3.239842892 -0.07055725157 0.1230467036)
(3.239835978 -0.07054740936 0.1230524033)
(3.239829063 -0.07053767145 0.1230579987)
(3.239821911 -0.07052803785 0.1230636016)
(3.239814997 -0.0705185011 0.1230691001)
(3.239808083 -0.07050908357 0.1230745018)
(3.239799976 -0.07049977034 0.1230799034)
(3.239793062 -0.07049057633 0.1230852008)
(3.239784956 -0.07048148662 0.1230904013)
(3.239777088 -0.07047253102 0.1230956018)
(3.239768028 -0.07046368718 0.123100698)
(3.239759922 -0.07045497745 0.1231056973)
(3.239751101 -0.07044638693 0.1231106967)
(3.239742041 -0.07043793797 0.1231155992)
(3.239732981 -0.07042960823 0.1231203973)
(3.239723921 -0.07042142004 0.1231250986)
(3.239715099 -0.07041337341 0.1231298)
(3.239706039 -0.07040546089 0.1231343001)
(3.239696026 -0.07039768994 0.1231388003)
(3.239686012 -0.07039006054 0.1231432036)
(3.239675999 -0.07038258016 0.1231475025)
(3.239665985 -0.07037524879 0.1231518015)
(3.239655972 -0.07036806643 0.1231558993)
(3.239645958 -0.07036104798 0.1231599972)
(3.239634991 -0.0703541711 0.1231639013)
(3.239624977 -0.07034745812 0.1231677979)
(3.23961401 -0.07034090161 0.1231715977)
(3.239603043 -0.07033450902 0.1231753007)
(3.239592075 -0.07032828033 0.1231788993)
(3.239581108 -0.07032222301 0.1231824011)
(3.239569902 -0.07031630725 0.1231857985)
(3.239557981 -0.07031059265 0.1231890991)
(3.239547014 -0.07030502707 0.1231923029)
(3.239535093 -0.0702996403 0.1231954023)
(3.239523888 -0.07029441744 0.1231983975)
(3.239511967 -0.0702893883 0.1232013032)
(3.239500046 -0.07028452307 0.1232042015)
(3.239487886 -0.07027983665 0.1232068986)
(3.239475965 -0.07027532905 0.1232094988)
(3.239464045 -0.07027100772 0.1232120022)
(3.239451885 -0.07026687264 0.1232144013)
(3.239439011 -0.07026290148 0.1232165992)
(3.239326 -0.07023569196 0.1232322976)
(3.239312887 -0.0702336207 0.1232334971)
(3.239337921 -0.07023795694 0.1232310012)
(3.23942709 -0.07025913149 0.1232187971)
(3.239413977 -0.07025554031 0.1232208982)
(3.239363909 -0.07024306059 0.1232281029)
(3.239351034 -0.07024040818 0.1232296005)
(3.227896929 -0.0685134083 0.1242266968)
(3.227566957 -0.06848081201 0.1242455021)
(3.227236032 -0.06845322251 0.1242614985)
(3.226905107 -0.06843061745 0.1242744997)
(3.22657299 -0.06841304898 0.1242846996)
(3.22623992 -0.0684004873 0.1242918968)
(3.225908041 -0.06839294732 0.1242963001)
(3.215733051 -0.06839252263 0.1242965013)
(3.215496063 -0.06839545816 0.1242948025)
(3.215424061 -0.07344359905 0.1213802993)
(3.215733051 -0.07344768196 0.1213779002)
(3.215306044 -0.07344145328 0.1213814989)
(3.215306044 -0.06839873642 0.1242929026)
(3.214879036 -0.07343106717 0.1213874966)
(3.214879036 -0.06840912253 0.1242868975)
(3.214832067 -0.06841052324 0.1242861003)
(3.214761019 -0.07342746854 0.1213895977)
(3.214452028 -0.06842365116 0.1242785007)
(3.214452028 -0.07341655344 0.1213959008)
(3.214169025 -0.06843555719 0.1242716983)
(3.214097977 -0.0734013617 0.1214047)
(3.214025021 -0.06844232231 0.1242676973)
(3.214025021 -0.07339786738 0.1214066967)
(3.213598967 -0.06846514344 0.1242545992)
(3.213509083 -0.06847052276 0.1242514998)
(3.213174105 -0.06849207729 0.1242389977)
(3.212852001 -0.0685152933 0.1242256016)
(3.213174105 -0.0733481124 0.1214353964)
(3.213438988 -0.07336535305 0.1214253977)
(3.212749958 -0.06852316111 0.1242211014)
(3.212781906 -0.07331953943 0.1214518994)
(3.21232605 -0.06855835021 0.1242007986)
(3.212198973 -0.06856971979 0.1241941974)
(3.211904049 -0.06859765202 0.1241780967)
(3.21213007 -0.07326407731 0.1214838997)
(3.21232605 -0.07328183949 0.1214736998)
(3.211550951 -0.06863366812 0.1241573021)
(3.211482048 -0.06864106655 0.1241530031)
(3.211904049 -0.07324253768 0.1214962974)
(3.196732998 -0.0702336207 0.1232334971)
(3.196707964 -0.07023659348 0.1232317984)
(3.196696997 -0.0716022402 0.1224434003)
(3.196715117 -0.07160451263 0.1224420965)
(3.196685076 -0.07160065323 0.1224443018)
(3.196696997 -0.07023794949 0.1232310012)
(3.196679115 -0.07024040818 0.1232296005)
(3.196660042 -0.07159698755 0.1224464029)
(3.196656942 -0.07024361193 0.1232277974)