/*--------------------------------*- C++ -*----------------------------------*\
| =========                 |                                                 |
| \\      /  F ield         | OpenFOAM: The Open Source CFD Toolbox           |
|  \\    /   O peration     | Version:  v2406                                 |
|   \\  /    A nd           | Website:  www.openfoam.com                      |
|    \\/     M anipulation  |                                                 |
\*---------------------------------------------------------------------------*/
FoamFile
{
    version     2.0;
    format      ascii;
    class       dictionary;
    object      thermophysicalProperties;
}
// * * * * * * * * * * * * * * * * * * * * * * * * * * * * * * * * * * * * * //

/*
thermoType
{
 type hePsiThermo;
 mixture pureMixture;
 transport const;
 thermo eConst;
 equationOfState perfectGas;
 specie specie;
 energy sensibleInternalEnergy;
}
*/
thermoType
{
    type            hePsiThermo;
    //type            heRhoThermo;
    mixture         pureMixture;
    transport       const;//const;//sutherland;
    thermo          eConst;//eConst;
    equationOfState perfectGas;
    specie          specie;
    energy          sensibleInternalEnergy;//sensibleEnthalpy;//sensibleInternalEnergy;
}
/*
thermoType
{
    type            hePsiThermo;
    mixture         pureMixture;
    transport       const;
    thermo          eConst;
    //thermo          hConst;
    equationOfState perfectGas;
    specie          specie;
    energy          sensibleInternalEnergy;
    //energy          sensibleEnthalpy;
}
    */

mixture
{
    specie
    {
        molWeight   28.9;
    }
    thermodynamics
    {
        Cv          712;
        Cp         1005;
        Hf          0;
    }
    /*
    transport
    {
        mu          1.8e-05;
        Pr          0.7;
    }*/
    transport
    {
        mu          1.8e-05;
        As          1.4792e-06;
        Ts          116;
        Pr          0.7;
    }
}


// ************************************************************************* //
