/*--------------------------------*- C++ -*----------------------------------*\
  =========                 |
  \\      /  F ield         | OpenFOAM: The Open Source CFD Toolbox
   \\    /   O peration     | Website:  https://openfoam.org
    \\  /    A nd           | Version:  11
     \\/     M anipulation  |
\*---------------------------------------------------------------------------*/
FoamFile
{
    format      ascii;
    class       featureEdgeMesh;
    location    "constant/triSurface";
    object      RocketV2.eMesh;
}
// * * * * * * * * * * * * * * * * * * * * * * * * * * * * * * * * * * * * * //


// points:

746
(
(2.965078115 0.1638935059 -0.002168026054)
(2.965078115 0.1638935059 0.002168026054)
(2.910840034 0.1638935059 0)
(2.910840034 -0.08194675297 0.1419358999)
(2.965280056 -0.0802969709 0.142888397)
(2.965078115 -0.08382430673 0.1408519)
(2.965078115 -0.08382430673 -0.1408519)
(2.965078115 -0.08006917685 -0.1430198997)
(2.910840034 -0.08194675297 -0.1419358999)
(2.797734022 0.05105400085 -3.003147037e-11)
(2.869180918 -0.06111712009 0.1058579981)
(2.851526022 -0.05228998885 0.09056892246)
(2.860353947 -0.05670356005 0.09821344167)
(2.860353947 -0.05670356005 0.09821342677)
(2.798352957 0.05150585994 -3.208814117e-11)
(2.799243927 0.05229754001 0)
(2.798352957 0.05150585994 -4.693009002e-12)
(2.965450048 -0.08084689826 0.1425708979)
(2.965450048 -0.08304660022 0.1413009018)
(2.965450048 -0.08304660022 -0.1413009018)
(2.965450048 -0.08084689826 -0.1425708979)
(2.965450048 0.1638935059 -0.001270000008)
(2.965450048 0.1638935059 -1.734722959e-18)
(2.965450048 0.1638935059 0.001270000008)
(2.943475008 0.1638935059 0.002540000016)
(2.938465118 0.1638935059 0.002540000016)
(2.954463005 0.1638935059 0.002540000016)
(2.951323032 0.1638935059 0.002540000016)
(2.932487011 0.1638935059 0.002540000016)
(2.925606966 0.1638935059 0.002540000016)
(2.921499968 0.1638935059 0.002540000016)
(2.964179993 0.1638935059 0.002540000016)
(2.914432049 0.1638935059 0.002540000016)
(2.914432049 0.1638935059 -0.002540000016)
(2.921499968 0.1638935059 -0.002540000016)
(2.951323032 0.1638935059 -0.002540000016)
(2.954463005 0.1638935059 -0.002540000016)
(2.964179993 0.1638935059 -0.002540000016)
(2.938465118 0.1638935059 -0.002540000016)
(2.943475008 0.1638935059 -0.002540000016)
(2.925606966 0.1638935059 -0.002540000016)
(2.932487011 0.1638935059 -0.002540000016)
(2.911459923 0.1638935059 0.001016702037)
(2.911820889 0.1638935059 0.001299098949)
(2.913729906 0.1638935059 -0.002409195993)
(2.913501024 0.1638935059 -0.002304354915)
(2.912659883 0.1638935059 -0.001919502974)
(2.911811113 0.1638935059 -0.001301164972)
(2.911590099 0.1638935059 -0.001140017994)
(2.911180973 0.1638935059 -0.0006770169712)
(2.913502932 0.1638935059 0.002313206904)
(2.913625002 0.1638935059 0.002373931929)
(2.911190033 0.1638935059 0.0006759539829)
(2.914133072 0.1638935059 -0.002484207973)
(2.910958052 0.1638935059 0.0003841104917)
(2.910840034 0.1638935059 -1.434347996e-05)
(2.911036015 0.1638935059 -0.0005129005876)
(2.912445068 0.1638935059 0.001788321999)
(2.912679911 0.1638935059 0.00190482405)
(2.914129019 0.1638935059 0.002477702918)
(2.910958052 -0.08227939904 0.1417438984)
(2.911190033 -0.08253215253 0.1415980011)
(2.911036015 -0.0815025568 0.1421923935)
(2.910840034 -0.08193433285 0.1419430971)
(2.911180973 -0.08136043698 0.1422743946)
(2.911459923 -0.08282724023 0.1414276063)
(2.911820889 -0.08307181299 0.1412864029)
(2.912445068 -0.0834954828 0.1410418004)
(2.914432049 -0.07974704355 0.143205896)
(2.914134026 -0.0797951892 0.1431781054)
(2.913729906 -0.07986032218 0.1431404948)
(2.913501978 -0.07995049655 0.1430885047)
(2.912659883 -0.08028440922 0.1428956985)
(2.911812067 -0.08081936836 0.1425867975)
(2.911590099 -0.08095946908 0.1425058991)
(2.912679911 -0.08359637856 0.140983507)
(2.913502932 -0.08395004272 0.1407793015)
(2.913625002 -0.08400263637 0.1407489926)
(2.964814901 -0.07989440113 0.1431208998)
(2.964179993 -0.07974704355 0.143205896)
(2.964179993 -0.08414644748 0.1406659037)
(2.954463005 -0.08414644748 0.1406659037)
(2.954463005 -0.07974704355 0.143205896)
(2.951323032 -0.08414644748 0.1406659037)
(2.951323032 -0.07974704355 0.143205896)
(2.943475008 -0.08414644748 0.1406659037)
(2.943475008 -0.07974704355 0.143205896)
(2.938465118 -0.08414644748 0.1406659037)
(2.938465118 -0.07974704355 0.143205896)
(2.932487011 -0.08414644748 0.1406659037)
(2.932487011 -0.07974704355 0.143205896)
(2.925606966 -0.08414644748 0.1406659037)
(2.925606966 -0.07974704355 0.143205896)
(2.921499968 -0.08414644748 0.1406659037)
(2.921499968 -0.07974704355 0.143205896)
(2.914432049 -0.08414644748 0.1406659037)
(2.914129019 -0.08409251273 0.1406971067)
(2.943475008 -0.07974704355 -0.143205896)
(2.938465118 -0.07974704355 -0.143205896)
(2.954463005 -0.07974704355 -0.143205896)
(2.951323032 -0.07974704355 -0.143205896)
(2.932487011 -0.07974704355 -0.143205896)
(2.925606966 -0.07974704355 -0.143205896)
(2.921499968 -0.07974704355 -0.143205896)
(2.964179993 -0.07974704355 -0.143205896)
(2.914432049 -0.07974704355 -0.143205896)
(2.951323032 -0.08414644748 -0.1406659037)
(2.954463005 -0.08414644748 -0.1406659037)
(2.964179993 -0.08414644748 -0.1406659037)
(2.938465118 -0.08414644748 -0.1406659037)
(2.943475008 -0.08414644748 -0.1406659037)
(2.914432049 -0.08414644748 -0.1406659037)
(2.921499968 -0.08414644748 -0.1406659037)
(2.925606966 -0.08414644748 -0.1406659037)
(2.932487011 -0.08414644748 -0.1406659037)
(2.911590099 -0.08293403685 -0.1413659006)
(2.911180973 -0.0825330615 -0.1415974051)
(2.913502932 -0.07994346321 -0.1430924982)
(2.913625002 -0.07989086211 -0.1431228966)
(2.911459923 -0.08106625825 -0.1424442977)
(2.911820889 -0.08082170039 -0.1425855011)
(2.911190033 -0.0813613534 -0.1422739029)
(2.912445068 -0.08039802313 -0.1428301036)
(2.912679911 -0.08029712737 -0.142888397)
(2.914133072 -0.08409813792 -0.1406937987)
(2.913729906 -0.0840331763 -0.1407313049)
(2.913501024 -0.08394238353 -0.1407838017)
(2.912659883 -0.08360908926 -0.1409762055)
(2.911811113 -0.08307359368 -0.1412853003)
(2.910958052 -0.08161409944 -0.1421280056)
(2.910840034 -0.08195917308 -0.1419288069)
(2.911036015 -0.08239092678 -0.1416794956)
(2.914129019 -0.0798009932 -0.1431747973)
(2.90448904 -0.07877138257 0.1364360005)
(2.895662069 -0.07435782254 0.1287914962)
(2.886835098 -0.0699442625 0.1211469993)
(2.878007889 -0.06553068757 0.1135025024)
(2.842699051 -0.04787642136 0.08292440325)
(2.83387208 -0.04346286133 0.07527987659)
(2.825045109 -0.03904929012 0.06763535738)
(2.816217899 -0.03463571891 0.05999083072)
(2.807390928 -0.03022216074 0.05234631151)
(2.90448904 -0.07877138257 -0.1364360005)
(2.895662069 -0.07435782254 -0.1287914962)
(2.886835098 -0.0699442625 -0.1211469993)
(2.878007889 -0.06553068757 -0.1135025024)
(2.869180918 -0.06111712009 -0.1058579981)
(2.860353947 -0.05670356005 -0.09821344167)
(2.851526022 -0.05228998885 -0.09056892246)
(2.842699051 -0.04787642136 -0.08292440325)
(2.83387208 -0.04346286133 -0.07527987659)
(2.825045109 -0.03904929012 -0.06763535738)
(2.816217899 -0.03463571891 -0.05999083072)
(2.807390928 -0.03022216074 -0.05234631151)
(2.90448904 0.1575427949 0)
(2.895662069 0.1487156004 0)
(2.886835098 0.1398884952 0)
(2.878007889 0.1310614049 0)
(2.869180918 0.1222342029 0)
(2.860353947 0.1134070978 0)
(2.851526022 0.10458 0)
(2.842699051 0.09575284272 0)
(2.83387208 0.08692572266 0)
(2.825045109 0.07809858024 0)
(2.816217899 0.06927145272 0)
(2.807390928 0.06044432148 0)
(2.965078115 -0.07087156922 -0.1184170991)
(2.965078115 -0.06439518929 -0.1071996987)
(2.965078115 -0.04496606067 -0.07354746014)
(2.965078115 -0.03848968819 -0.06233004853)
(2.965078115 -0.0514424406 -0.08476486802)
(2.965078115 -0.05791882053 -0.09598228335)
(2.965078115 -0.0773479417 -0.1296344995)
(2.965280056 -0.03178552911 -0.05124415085)
(2.965280056 -0.0312242303 -0.05012718961)
(2.965280056 -0.03079582006 -0.04895282909)
(2.965280056 -0.03044781089 -0.04737358913)
(2.965280056 -0.03033961914 -0.04576009884)
(2.965280056 -0.03047366999 -0.04414853826)
(2.965280056 -0.03084696084 -0.04257509112)
(2.965280056 -0.03145109862 -0.04107505083)
(2.965280056 -0.03227254003 -0.03968210146)
(2.964814901 -0.03218809888 -0.05101172999)
(2.964814901 -0.03165097162 -0.04994285852)
(2.965040922 -0.03310709074 -0.03909156844)
(2.965078115 -0.03274190053 -0.03948343918)
(2.965008974 -0.03415806964 -0.03807124123)
(2.965008974 -0.03780552 -0.03445193917)
(2.965008974 -0.04024608061 -0.03156654909)
(2.965008974 -0.04246693105 -0.02850881964)
(2.965008974 -0.04445596039 -0.02529546991)
(2.965008974 -0.04620229825 -0.02194402926)
(2.965008974 -0.04769641906 -0.01847280003)
(2.965008974 -0.04893016815 -0.01490072999)
(2.965008974 -0.0498968102 -0.01124730986)
(2.965008974 -0.05059105903 -0.007532491814)
(2.965008974 -0.05100912973 -0.003776554018)
(2.965008974 -0.05100912973 0.003776554018)
(2.965008974 -0.05114873871 3.70016409e-13)
(2.965008974 -0.05059105903 0.007532491814)
(2.965008974 -0.0498968102 0.01124730986)
(2.965008974 -0.04769641906 0.01847280003)
(2.965008974 -0.04893016815 0.01490072999)
(2.965008974 -0.04620229825 0.02194402926)
(2.965008974 -0.04445596039 0.02529546991)
(2.965008974 -0.04024608061 0.03156654909)
(2.965008974 -0.04246693105 0.02850881964)
(2.965008974 -0.03780552 0.03445193917)
(2.965008974 -0.03415806964 0.03807124123)
(2.965040922 -0.03310709074 0.03909156844)
(2.965078115 -0.03274190053 0.03948343918)
(2.965280056 -0.03145109862 0.04107505083)
(2.965280056 -0.03084696084 0.04257509112)
(2.965280056 -0.03047366999 0.04414853826)
(2.965280056 -0.03033961914 0.04576009884)
(2.965280056 -0.03044781089 0.04737358913)
(2.965280056 -0.03079582006 0.04895282909)
(2.965280056 -0.0312242303 0.05012718961)
(2.965280056 -0.03178552911 0.05124415085)
(2.964814901 -0.03218809888 0.05101172999)
(2.964814901 -0.03165097162 0.04994285852)
(2.965078115 -0.04496606067 0.07354746014)
(2.965078115 -0.0514424406 0.08476486802)
(2.965078115 -0.05791882053 0.09598228335)
(2.965078115 -0.06439518929 0.1071996987)
(2.965078115 -0.07087156922 0.1184170991)
(2.965078115 -0.0773479417 0.1296344995)
(2.965078115 -0.03848968819 0.06233004853)
(2.965078115 0.1509407014 -0.002168026054)
(2.965078115 0.1379880011 -0.002168026054)
(2.965078115 0.1250353009 -0.002168026054)
(2.965078115 0.1120824963 -0.002168026054)
(2.965078115 0.09912975132 -0.002168026054)
(2.965078115 0.08617699891 -0.002168026054)
(2.965078115 0.0732242465 -0.002168026054)
(2.965450048 0.06181215867 -0.001270000008)
(2.965280056 0.06027150154 -0.001904999954)
(2.965280056 0.05902352929 -0.001977378968)
(2.965280056 0.0577922985 -0.002193545923)
(2.965280056 0.05625063926 -0.002681782003)
(2.965280056 0.05479921028 -0.003394836094)
(2.965280056 0.05347058922 -0.00431670621)
(2.965280056 0.05229458958 -0.005426703952)
(2.965280056 0.05129759014 -0.00669992296)
(2.965280056 0.05050197989 -0.008107787929)
(2.964814901 0.06027150154 -0.002369852038)
(2.964814901 0.05907727033 -0.002439114964)
(2.965040922 0.05040783063 -0.009125796147)
(2.965078115 0.05056460947 -0.008613597602)
(2.965008974 0.05004969984 -0.01054613013)
(2.965008974 0.04873901978 -0.01551457029)
(2.965008974 0.0459228307 -0.02252303064)
(2.965008974 0.04746047035 -0.01907085069)
(2.965008974 0.04413450137 -0.02585224994)
(2.965008974 0.04210523888 -0.02904034965)
(2.965008974 0.03736948967 -0.03492441028)
(2.965008974 0.03984612972 -0.03206991032)
(2.965008974 0.03468886018 -0.03758824989)
(2.965008974 0.03181885928 -0.04004688933)
(2.965008974 0.02557436936 -0.04429610074)
(2.965008974 0.02877515927 -0.04228692129)
(2.965008974 0.02223397046 -0.04606347904)
(2.965008974 0.01877219975 -0.04757938907)
(2.965008974 0.01520795003 -0.04883556068)
(2.965008974 0.01156068034 -0.04982513934)
(2.965008974 0.007850295864 -0.05054271966)
(2.965008974 0.004097058903 -0.05098439008)
(2.965008974 0.0003214571916 -0.05114772916)
(2.965008974 -0.003455899889 -0.05103185028)
(2.965008974 -0.007214391138 -0.05063740164)
(2.965008974 -0.0158916302 -0.0486173816)
(2.965008974 -0.01093349978 -0.04996651039)
(2.965040922 -0.0173007492 -0.04821735993)
(2.965078115 -0.0178227108 -0.04809702933)
(2.965280056 -0.01984648965 -0.04777498171)
(2.965280056 -0.0214476306 -0.04800178856)
(2.965280056 -0.02299691923 -0.04846524075)
(2.965280056 -0.02445958927 -0.04915492982)
(2.965280056 -0.02580283023 -0.05005536973)
(2.965280056 -0.0269964803 -0.05114636943)
(2.965280056 -0.02779931016 -0.05210456997)
(2.965280056 -0.02848597057 -0.05314914882)
(2.964814901 -0.0280834008 -0.05338158086)
(2.964814901 -0.02742630057 -0.05238198116)
(2.965078115 -0.04121093079 -0.07571548223)
(2.965078115 -0.04768731073 -0.08693289757)
(2.965078115 -0.05416369066 -0.0981503129)
(2.965078115 -0.06064005941 -0.1093676984)
(2.965078115 -0.06711643189 -0.1205850989)
(2.965078115 -0.07359281182 -0.1318024993)
(2.965078115 -0.03473455831 -0.0644980669)
(2.965280056 -0.07382059842 0.1316709965)
(2.965280056 -0.06734421849 0.1204536036)
(2.965280056 -0.05439146981 0.0980188027)
(2.965280056 -0.04791510105 0.08680137992)
(2.965280056 -0.04143872112 0.07558397204)
(2.965280056 -0.03496234864 0.0643665567)
(2.965280056 -0.06086784974 0.1092362031)
(2.965280056 -0.02848597057 0.05314914882)
(2.965280056 -0.02779931016 0.05210456997)
(2.965280056 -0.02580283023 0.05005536973)
(2.965280056 -0.0269964803 0.05114636943)
(2.965280056 -0.02445958927 0.04915492982)
(2.965280056 -0.02299691923 0.04846524075)
(2.965280056 -0.0214476306 0.04800178856)
(2.965280056 -0.01984648965 0.04777498171)
(2.965280056 -0.01822943985 0.04778989032)
(2.965040922 -0.0173007492 0.04821735993)
(2.965078115 -0.0178227108 0.04809702933)
(2.965008974 -0.0158916302 0.0486173816)
(2.965008974 -0.01093349978 0.04996651039)
(2.965008974 -0.007214391138 0.05063740164)
(2.965008974 -0.003455899889 0.05103185028)
(2.965008974 0.0003214571916 0.05114772916)
(2.965008974 0.004097058903 0.05098439008)
(2.965008974 0.007850295864 0.05054271966)
(2.965008974 0.01156068034 0.04982513934)
(2.965008974 0.01520795003 0.04883556068)
(2.965008974 0.01877219975 0.04757938907)
(2.965008974 0.02223397046 0.04606347904)
(2.965008974 0.02557436936 0.04429610074)
(2.965008974 0.02877515927 0.04228692129)
(2.965008974 0.03181885928 0.04004688933)
(2.965008974 0.03468886018 0.03758824989)
(2.965008974 0.03736948967 0.03492441028)
(2.965008974 0.03984612972 0.03206991032)
(2.965008974 0.04210523888 0.02904034965)
(2.965008974 0.04413450137 0.02585224994)
(2.965008974 0.0459228307 0.02252303064)
(2.965008974 0.04873901978 0.01551457029)
(2.965008974 0.04746047035 0.01907085069)
(2.965008974 0.05004969984 0.01054613013)
(2.965040922 0.05040783063 0.009125796147)
(2.965078115 0.05056460947 0.008613597602)
(2.965280056 0.05129759014 0.00669992296)
(2.965280056 0.05229458958 0.005426703952)
(2.965280056 0.05347058922 0.00431670621)
(2.965280056 0.05479921028 0.003394836094)
(2.965280056 0.05625063926 0.002681782003)
(2.965280056 0.0577922985 0.002193545923)
(2.965280056 0.05902352929 0.001977378968)
(2.965280056 0.06027150154 0.001904999954)
(2.964814901 0.06027150154 0.002369852038)
(2.964814901 0.05907727033 0.002439114964)
(2.965078115 0.0732242465 0.002168026054)
(2.965078115 0.08617699891 0.002168026054)
(2.965078115 0.09912975132 0.002168026054)
(2.965078115 0.1120824963 0.002168026054)
(2.965078115 0.1250353009 0.002168026054)
(2.965078115 0.1379880011 0.002168026054)
(2.965078115 0.1509407014 0.002168026054)
(2.965450048 0.06181215867 0.001270000008)
(3.040210009 -0.01637011953 -0.0351058282)
(3.040210009 -0.01324815024 -0.03639898822)
(3.040210009 -0.01936749928 -0.03354549035)
(3.040210009 -0.02221748047 -0.03172985092)
(3.040210009 -0.02489838004 -0.02967273071)
(3.040210009 -0.02738977969 -0.02738977969)
(3.040210009 -0.02967273071 -0.02489838004)
(3.040210009 -0.03172985092 -0.02221748047)
(3.040210009 -0.03354549035 -0.01936749928)
(3.040210009 -0.0351058282 -0.01637011953)
(3.040210009 -0.03639898822 -0.01324815024)
(3.040210009 -0.03741513938 -0.01002535969)
(3.040210009 -0.03814652935 -0.00672626216)
(3.040210009 -0.03858759999 -0.003375977976)
(3.040210009 -0.03873499855 -3.184843882e-16)
(3.040210009 -0.03858759999 0.003375977976)
(3.040210009 -0.03814652935 0.00672626216)
(3.040210009 -0.03741513938 0.01002535969)
(3.040210009 -0.03639898822 0.01324815024)
(3.040210009 -0.0351058282 0.01637011953)
(3.040210009 -0.03354549035 0.01936749928)
(3.040210009 -0.03172985092 0.02221748047)
(3.040210009 -0.02967273071 0.02489838004)
(3.040210009 -0.02738977969 0.02738977969)
(3.040210009 -0.02489838004 0.02967273071)
(3.040210009 -0.02221748047 0.03172985092)
(3.040210009 -0.01936749928 0.03354549035)
(3.040210009 -0.01637011953 0.0351058282)
(3.040210009 -0.01324815024 0.03639898822)
(3.040210009 -0.01002535969 0.03741513938)
(3.040210009 -0.00672626216 0.03814652935)
(3.040210009 -0.003375977976 0.03858759999)
(3.040210009 -2.048089006e-16 0.03873499855)
(3.040210009 0.003375977976 0.03858759999)
(3.040210009 0.00672626216 0.03814652935)
(3.040210009 0.01002535969 0.03741513938)
(3.040210009 0.01324815024 0.03639898822)
(3.040210009 0.01637011953 0.0351058282)
(3.040210009 0.01936749928 0.03354549035)
(3.040210009 0.02221748047 0.03172985092)
(3.040210009 0.02489838004 0.02967273071)
(3.040210009 0.02738977969 0.02738977969)
(3.040210009 0.02967273071 0.02489838004)
(3.040210009 0.03172985092 0.02221748047)
(3.040210009 0.03354549035 0.01936749928)
(3.040210009 0.0351058282 0.01637011953)
(3.040210009 0.03639898822 0.01324815024)
(3.040210009 0.03741513938 0.01002535969)
(3.040210009 0.03814652935 0.00672626216)
(3.040210009 0.03858759999 0.003375977976)
(3.040210009 0.03873499855 8.575777795e-17)
(3.040210009 0.03858759999 -0.003375977976)
(3.040210009 0.03814652935 -0.00672626216)
(3.040210009 0.03741513938 -0.01002535969)
(3.040210009 0.03639898822 -0.01324815024)
(3.040210009 0.0351058282 -0.01637011953)
(3.040210009 0.03354549035 -0.01936749928)
(3.040210009 0.03172985092 -0.02221748047)
(3.040210009 0.02967273071 -0.02489838004)
(3.040210009 0.02738977969 -0.02738977969)
(3.040210009 0.02489838004 -0.02967273071)
(3.040210009 0.02221748047 -0.03172985092)
(3.040210009 0.01936749928 -0.03354549035)
(3.040210009 0.01637011953 -0.0351058282)
(3.040210009 0.01324815024 -0.03639898822)
(3.040210009 0.01002535969 -0.03741513938)
(3.040210009 0.00672626216 -0.03814652935)
(3.040210009 0.003375977976 -0.03858759999)
(3.040210009 0 -0.03873499855)
(3.040210009 -0.003375977976 -0.03858759999)
(3.040210009 -0.00672626216 -0.03814652935)
(3.040210009 -0.01002535969 -0.03741513938)
(2.977979898 -0.01861011051 -0.04617477953)
(2.977979898 -0.01502086036 -0.04746389017)
(2.977979898 -0.02209015004 -0.04461470991)
(2.977979898 -0.02544054948 -0.04279280826)
(2.977979898 -0.02864165977 -0.0407197997)
(2.977979898 -0.03167469054 -0.03840782121)
(2.977979898 -0.03452184051 -0.03587045148)
(2.977979898 -0.03716640919 -0.03312256932)
(2.977979898 -0.0395928584 -0.03018032946)
(2.977979898 -0.0437358506 -0.02378280088)
(2.977979898 -0.04178696871 -0.02706097066)
(2.977979898 -0.04542807862 -0.02036507055)
(2.977979898 -0.04685372114 -0.01682782918)
(2.977979898 -0.04800439999 -0.01319183968)
(2.977979898 -0.04887336865 -0.009478431195)
(2.977979898 -0.04945553094 -0.005709399004)
(2.977979898 -0.04974747077 0.001906862948)
(2.977979898 -0.04974747077 -0.001906862948)
(2.977979898 -0.04945553094 0.005709399004)
(2.977979898 -0.04800439999 0.01319183968)
(2.977979898 -0.04887336865 0.009478431195)
(2.977979898 -0.04685372114 0.01682782918)
(2.977979898 -0.04542807862 0.02036507055)
(2.977979898 -0.0437358506 0.02378280088)
(2.977979898 -0.04178696871 0.02706097066)
(2.977979898 -0.0395928584 0.03018032946)
(2.977979898 -0.03716640919 0.03312256932)
(2.977979898 -0.03167469054 0.03840782121)
(2.977979898 -0.03452184051 0.03587045148)
(2.977979898 -0.02864165977 0.0407197997)
(2.977979898 -0.02544054948 0.04279280826)
(2.977979898 -0.02209015004 0.04461470991)
(2.977979898 -0.01861011051 0.04617477953)
(2.977979898 -0.0113434596 0.04847444966)
(2.977979898 -0.01502086036 0.04746389017)
(2.977979898 -0.007599492092 0.04920054972)
(2.977979898 -0.00381092797 0.04963792115)
(2.977979898 -5.990032244e-16 0.04978400096)
(2.977979898 0.00381092797 0.04963792115)
(2.977979898 0.007599492092 0.04920054972)
(2.977979898 0.0113434596 0.04847444966)
(2.977979898 0.01502086036 0.04746389017)
(2.977979898 0.01861011051 0.04617477953)
(2.977979898 0.02209015004 0.04461470991)
(2.977979898 0.02544054948 0.04279280826)
(2.977979898 0.02864165977 0.0407197997)
(2.977979898 0.03167469054 0.03840782121)
(2.977979898 0.03452184051 0.03587045148)
(2.977979898 0.03716640919 0.03312256932)
(2.977979898 0.0395928584 0.03018032946)
(2.977979898 0.0437358506 0.02378280088)
(2.977979898 0.04178696871 0.02706097066)
(2.977979898 0.04542807862 0.02036507055)
(2.977979898 0.04685372114 0.01682782918)
(2.977979898 0.04800439999 0.01319183968)
(2.977979898 0.04887336865 0.009478431195)
(2.977979898 0.04945553094 0.005709399004)
(2.977979898 0.04974747077 -0.001906862948)
(2.977979898 0.04974747077 0.001906862948)
(2.977979898 0.04945553094 -0.005709399004)
(2.977979898 0.04800439999 -0.01319183968)
(2.977979898 0.04887336865 -0.009478431195)
(2.977979898 0.04685372114 -0.01682782918)
(2.977979898 0.04542807862 -0.02036507055)
(2.977979898 0.0437358506 -0.02378280088)
(2.977979898 0.04178696871 -0.02706097066)
(2.977979898 0.0395928584 -0.03018032946)
(2.977979898 0.03716640919 -0.03312256932)
(2.977979898 0.03167469054 -0.03840782121)
(2.977979898 0.03452184051 -0.03587045148)
(2.977979898 0.02864165977 -0.0407197997)
(2.977979898 0.02544054948 -0.04279280826)
(2.977979898 0.02209015004 -0.04461470991)
(2.977979898 0.01861011051 -0.04617477953)
(2.977979898 0.0113434596 -0.04847444966)
(2.977979898 0.01502086036 -0.04746389017)
(2.977979898 0.007599492092 -0.04920054972)
(2.977979898 0.00381092797 -0.04963792115)
(2.977979898 0 -0.04978400096)
(2.977979898 -0.00381092797 -0.04963792115)
(2.977979898 -0.007599492092 -0.04920054972)
(2.977979898 -0.0113434596 -0.04847444966)
(2.965450048 -0.02237191051 0.04518377036)
(2.965450048 -0.01771062054 0.0472060293)
(2.965450048 -0.02833860926 0.04163654149)
(2.965450048 -0.02900698967 0.04123917967)
(2.965450048 -0.03202630952 0.03894086927)
(2.965450048 -0.02833860926 -0.04153103009)
(2.965450048 -0.03202630952 -0.03894086927)
(2.965450048 -0.0257650502 -0.04333864152)
(2.965450048 -0.01884748042 -0.04676375166)
(2.965450048 -0.01771062054 -0.0472060293)
(2.797801018 -0.02614331059 -0.04384721816)
(2.797823906 -0.02635766938 -0.04371963069)
(2.797859907 -0.02669377066 -0.04351957887)
(2.797878027 -0.02677116916 -0.04347062111)
(2.797911882 -0.02691702917 -0.04337837175)
(2.797996044 -0.02727922052 -0.04314928874)
(2.797880888 -0.02426034026 -0.04491883889)
(2.797844887 -0.02442418039 -0.044832699)
(2.798099995 -0.02326462045 -0.04544238001)
(2.797997952 -0.0237281993 -0.04519863054)
(2.797914028 -0.02411163971 -0.04499702901)
(2.797818899 -0.02468593977 -0.04468585923)
(2.797796965 -0.02490231022 -0.04456448928)
(2.797766924 -0.02520005964 -0.04439745843)
(2.797746897 -0.02540273964 -0.04428377002)
(2.797734022 -0.02552700043 -0.04421405867)
(2.797746897 -0.02564923093 -0.0441413112)
(2.79776907 -0.0258490108 -0.04402238876)
(2.797795057 -0.02608723938 -0.04388058931)
(2.797880888 0.05103101954 0.001449352014)
(2.797844887 0.05103833973 0.001264389954)
(2.797914028 0.05102438107 0.001617223024)
(2.797818899 0.0510420613 0.0009642784717)
(2.797796965 0.05104513094 0.0007162091206)
(2.797766924 0.05104935914 0.0003748392046)
(2.797746897 0.05105223879 0.0001424645016)
(2.797746897 0.05105210841 -0.0001422258938)
(2.79776907 0.05104902014 -0.0003747069859)
(2.797801018 0.05104446039 -0.0007171587786)
(2.797823906 0.05104114115 -0.0009665911202)
(2.797859907 0.05103594065 -0.001357697998)
(2.797878027 0.05103224888 -0.001449208008)
(2.797911882 0.05102527887 -0.001621647039)
(2.797996044 0.05100798979 -0.002049858915)
(2.798099995 0.05098656937 0.002573435893)
(2.797997952 0.05100725964 0.002050091047)
(2.797979116 0.051011011 0.001955288928)
(2.798099995 -0.02772193961 0.0428689383)
(2.797997952 -0.02727906033 0.04314853996)
(2.797914028 -0.02691275068 0.04337979853)
(2.797880888 -0.02677069046 0.04346948862)
(2.797844887 -0.02661415935 0.0435683094)
(2.797818899 -0.02635611966 0.04372157902)
(2.797796965 -0.02614282072 0.04384827986)
(2.797766924 -0.02584929951 0.04402261972)
(2.797746897 -0.02564949915 0.04414130002)
(2.797734022 -0.02552700043 0.04421405867)
(2.797746897 -0.02540287934 0.04428353906)
(2.79776907 -0.02520000003 0.04439710081)
(2.797801018 -0.02490114979 0.04456438124)
(2.797823906 -0.02468347922 0.04468622059)
(2.797859907 -0.02434216999 0.04487726837)
(2.797878027 -0.02426107042 0.04491982982)
(2.797911882 -0.02410826087 0.04500002041)
(2.797996044 -0.02372875996 0.04519914091)
(2.965450048 0.04973693937 0.008265164681)
(2.965450048 0.05038199946 0.001931185019)
(2.965450048 0.0500863418 -0.005782223772)
(2.965450048 0.04973693937 -0.008265164681)
(2.965450048 0.05030798167 -4.336809104e-18)
(2.965450048 -0.00711146323 0.04991494864)
(2.965450048 -0.007693160791 0.04981001839)
(2.965450048 -0.01077750977 0.04925363883)
(2.965450048 -0.01520677004 0.04804841056)
(2.965450048 -0.0156649109 0.04792375118)
(2.965450048 -0.01715938002 0.04739943147)
(2.965450048 -0.03967189044 0.03111618944)
(2.965450048 -0.04008094966 0.03055299073)
(2.965450048 -0.03246942163 0.03856018186)
(2.965450048 -0.03367073089 0.037528079)
(2.965450048 -0.03492148966 0.03628697991)
(2.965450048 -0.03726615012 0.03396042064)
(2.965450048 -0.04701593891 0.01820925064)
(2.965450048 -0.04742239043 0.01703247055)
(2.965450048 -0.04186106101 0.02810209058)
(2.965450048 -0.04382171109 0.02493458055)
(2.965450048 -0.04427019134 0.02407390065)
(2.965450048 -0.04554313049 0.02163095959)
(2.965450048 -0.04823208973 0.01468813978)
(2.965450048 -0.04918492958 0.01108684018)
(2.965450048 -0.04946406931 0.009593221359)
(2.965450048 -0.04986926913 0.007425026037)
(2.965450048 -0.05028137937 0.003722673981)
(2.965450048 -0.05034765974 0.001929915976)
(2.965450048 -0.05041899905 3.647372118e-13)
(2.965450048 -0.05028137937 -0.003722673981)
(2.965450048 -0.05005254969 -0.005778463092)
(2.965450048 -0.04986926913 -0.007425026037)
(2.965450048 -0.04918492958 -0.01108684018)
(2.965450048 -0.0485856384 -0.01335188001)
(2.965450048 -0.04823208973 -0.01468813978)
(2.965450048 -0.04701593891 -0.01820925064)
(2.965450048 -0.04598110169 -0.02061345987)
(2.965450048 -0.04554313049 -0.02163095959)
(2.965450048 -0.04382171109 -0.02493458055)
(2.965450048 -0.04229963943 -0.02739354968)
(2.965450048 -0.04186106101 -0.02810209058)
(2.965450048 -0.03967189044 -0.03111618944)
(2.965450048 -0.03762705997 -0.03353371844)
(2.965450048 -0.03726615012 -0.03396042064)
(2.965450048 -0.03367073089 -0.037528079)
(2.965450048 -0.0324701108 -0.03856099024)
(2.965450048 -0.03207870945 -0.03889771178)
(2.965450048 -0.01715938002 -0.04739943147)
(2.965450048 -0.0156649109 -0.04792375118)
(2.965450048 -0.01147991978 -0.04906250909)
(2.965450048 -0.01077750977 -0.04925363883)
(2.965450048 -0.00711146323 -0.04991494864)
(2.965450048 -0.003857999109 -0.05025640875)
(2.965450048 -0.003406594973 -0.05030377954)
(2.965450048 0.00031687101 -0.05041800067)
(2.965450048 0.01139574032 -0.04911427945)
(2.965450048 0.01148725022 -0.04908945039)
(2.965450048 0.003859264078 -0.05026474968)
(2.965450048 0.00403860677 -0.0502569899)
(2.965450048 0.007738295011 -0.04982163012)
(2.965450048 0.02520949952 -0.04366413876)
(2.965450048 0.02575458959 -0.04332197085)
(2.965450048 0.01499097981 -0.04813881963)
(2.965450048 0.01850437932 -0.04690057039)
(2.965450048 0.01884254999 -0.0467524901)
(2.965450048 0.02191676013 -0.0454062894)
(2.965450048 0.03683634102 -0.03442614153)
(2.965450048 0.03761783987 -0.03352541849)
(2.965450048 0.02836461924 -0.04168361053)
(2.965450048 0.03136489913 -0.03947554901)
(2.965450048 0.03206206858 -0.0388782993)
(2.965450048 0.03419395909 -0.03705197945)
(2.965450048 0.03927765042 -0.03161237016)
(2.965450048 0.04150452837 -0.02862603031)
(2.965450048 0.04229224101 -0.02738849074)
(2.965450048 0.04350484163 -0.02548342012)
(2.965450048 0.04526764899 -0.02220169082)
(2.965450048 0.04597621039 -0.02061088942)
(2.965450048 0.04678335041 -0.01879877038)
(2.965450048 0.04804366082 -0.01529322006)
(2.965450048 0.04855772108 -0.01334454026)
(2.965450048 0.04933563992 -0.01039567031)
(2.965450048 0.04962880164 -0.008839253336)
(2.965450048 0.049633421 0.008840160444)
(2.965450048 0.04949675128 0.009599328972)
(2.965450048 0.04933563992 0.01039567031)
(2.965450048 0.04804366082 0.01529322006)
(2.965450048 0.04741895944 0.01703082956)
(2.965450048 0.04678335041 0.01879877038)
(2.965450048 0.04526764899 0.02220169082)
(2.965450048 0.04426397011 0.02407017909)
(2.965450048 0.04350484163 0.02548342012)
(2.965450048 0.04150452837 0.02862603031)
(2.965450048 0.04007254168 0.03054638952)
(2.965450048 0.03927765042 0.03161237016)
(2.965450048 0.03683634102 0.03442614153)
(2.965450048 0.03494247049 0.03630815074)
(2.965450048 0.03419395909 0.03705197945)
(2.965450048 0.03136489913 0.03947554901)
(2.965450048 0.02899347059 0.04122081026)
(2.965450048 0.02836461924 0.04168361053)
(2.965450048 0.02520949952 0.04366413876)
(2.965450048 0.02236435004 0.04516948014)
(2.965450048 0.02191676013 0.0454062894)
(2.965450048 0.01850437932 0.04690057039)
(2.965450048 0.01520978007 0.04806170985)
(2.965450048 0.01499097981 0.04813881963)
(2.965450048 0.00031687101 0.05041800067)
(2.965450048 3.284135062e-07 0.05040828884)
(2.965450048 -0.003406594973 0.05030377954)
(2.965450048 0.01139574032 0.04911427945)
(2.965450048 0.007738295011 0.04982163012)
(2.965450048 0.007696243003 0.04982656986)
(2.965450048 0.00403860677 0.0502569899)
(2.978149891 -0.03015916981 -0.02530655079)
(2.978149891 -0.03046526946 -0.02486938983)
(2.978149891 -0.03409542143 0.01968500018)