/*--------------------------------*- C++ -*----------------------------------*\
  =========                 |
  \\      /  F ield         | OpenFOAM: The Open Source CFD Toolbox
   \\    /   O peration     | Website:  https://openfoam.org
    \\  /    A nd           | Version:  11
     \\/     M anipulation  |
\*---------------------------------------------------------------------------*/
FoamFile
{
    format      ascii;
    class       featureEdgeMesh;
    location    "constant/triSurface";
    object      RocketV5.eMesh;
}
// * * * * * * * * * * * * * * * * * * * * * * * * * * * * * * * * * * * * * //


// points:

1712
(
(2.208435535 0.02804487571 0.04857514799)
(2.208441019 0.02812736854 0.0487180315)
(1.389291525 0.03962400183 0.06863078475)
(1.516291499 0.03962400183 0.06863078475)
(2.335441589 0.03962400183 0.06863078475)
(2.208441496 0.03962400183 0.06863078475)
(2.208443642 0.0281500686 0.04876371846)
(1.516288042 0.02815262973 0.04875216261)
(1.516293645 0.02809040621 0.04865401238)
(1.389280796 0.02800592408 0.04850768298)
(1.389279008 0.02799433842 0.04848761857)
(1.516297221 0.0280435551 0.04857361317)
(1.389294982 0.02814429626 0.04875697568)
(2.20844245 0.02815588936 0.04877043515)
(2.208427906 0.02798823081 0.04847703874)
(2.208445072 0.02814429626 0.04875697568)
(2.20843935 0.02809040621 0.04865401238)
(2.208447933 0.02813223936 0.04874296486)
(2.335453987 0.02799433842 0.04848761857)
(2.335443258 0.02809500508 0.04866197333)
(2.208435774 0.02804420516 0.04857323691)
(2.208444834 0.02815308236 0.04875344783)
(2.335438013 0.02815262973 0.04875216261)
(2.335434914 0.02814652771 0.04873471707)
(1.516289353 0.02815558389 0.04876053333)
(1.389293671 0.0281500686 0.04876371846)
(2.208539724 0.03956817463 0.06866300851)
(2.335439205 0.02815558389 0.04876053333)
(2.208510876 0.02814642526 0.04865167663)
(2.208482504 0.02808065154 0.04870422184)
(2.575261354 -0.0276649911 -0.04895516858)
(2.575131416 -0.02762458287 -0.04885071889)
(2.574585199 -0.0281798467 -0.04798974842)
(2.575131416 0.05611825734 0.0005017700605)
(2.575261354 0.05622891709 0.0005189998774)
(2.574585199 0.05565026402 -0.0004095878103)
(2.574585199 -0.02747041918 0.04839933664)
(2.575131416 -0.02849367261 0.04834894836)
(2.575261354 -0.02856392413 0.04843616858)
(2.79253149 -0.09494207054 0.169043377)
(2.792521 -0.09495157748 0.1690931171)
(2.792485952 -0.09498214722 0.1692469418)
(2.79253149 -0.09892482311 -0.1667439342)
(2.792521 -0.09896314144 -0.1667770296)
(2.792485952 -0.09908107668 -0.1668804139)
(2.792509556 -0.09900347888 -0.1668118685)
(2.792509556 -0.09496158361 0.1691454649)
(1.516291499 0.02816099487 0.04877627268)
(1.516291499 0.0281573385 0.04876994342)
(1.516510129 0.02748462558 0.04760476574)
(1.516549945 0.02742708102 0.04750509933)
(1.516617298 0.02733970433 0.04735375568)
(1.516624689 0.02733071335 0.04733818397)
(1.516691804 0.0272539407 0.04720520973)
(1.516712308 0.02723186836 0.04716697708)
(1.516773343 0.02716972679 0.04705934599)
(1.51680994 0.02713468671 0.04699865729)
(1.516862035 0.02708701044 0.04691607878)
(1.516917109 0.02703933418 0.04683350027)
(1.51695776 0.02700575069 0.04677533358)
(1.517034054 0.02694597282 0.04667179286)
(1.517060637 0.02692592144 0.04663706571)
(1.517170787 0.02684750594 0.04650124535)
(1.517276406 0.02677799016 0.04638084024)
(1.517295718 0.02676578984 0.0463597104)
(1.517413139 0.02669497952 0.04623705894)
(1.517440319 0.02667926997 0.04620985314)
(1.517557144 0.0266146604 0.04609794542)
(1.517593741 0.02659533918 0.04606447741)
(1.517708659 0.02653698809 0.04596341029)
(1.517755747 0.02651414461 0.04592384398)
(1.517867565 0.02646193467 0.04583341628)
(1.517925978 0.02643582784 0.04578819498)
(1.518033981 0.02638950013 0.04570795223)
(1.518104434 0.02636052854 0.0456577763)
(1.518207908 0.02631969377 0.04558704793)
(1.518290639 0.02628838271 0.04553281516)
(1.518622875 0.02617380023 0.04533435032)
(1.518685341 0.02615407482 0.04530018568)
(1.518839121 0.02610775083 0.04521995038)
(1.518893242 0.02609216981 0.04519296438)
(1.519061804 0.02604590356 0.04511282966)
(1.51910758 0.0260339193 0.04509206861)
(1.519130468 0.02602801472 0.04508184269)
(1.519291043 0.02598825283 0.04501297697)
(1.519328237 0.02597943693 0.04499770328)
(1.519332528 0.02597843856 0.04499597475)
(1.518413305 0.02624408342 0.04545608535)
(1.518484473 0.02621951699 0.04541353509)
(1.518389344 0.026252551 0.04547075182)
(1.516479611 0.02753267065 0.047687985)
(1.516422272 0.02763549425 0.04786607996)
(1.516459346 0.02756685764 0.04774719849)
(1.516339183 0.02784232236 0.04822431877)
(1.516345263 0.02782273479 0.04819038883)
(1.516332626 0.02786471881 0.04826311022)
(1.516322613 0.02790259197 0.04832870886)
(1.516313791 0.02794106118 0.04839533567)
(1.516317964 0.02792206593 0.04836243764)
(1.51629734 0.02804487571 0.04857514799)
(1.51630497 0.02798823081 0.04847703874)
(1.516305685 0.02798388712 0.04846951365)
(1.516291976 0.02812736854 0.0487180315)
(1.516291857 0.02813293971 0.04872768)
(1.516415238 0.0276496578 0.04789061099)
(1.516377807 0.02773305774 0.04803506285)
(1.516296983 0.0280437991 0.04857202619)
(1.516313076 0.02793958969 0.04838957638)
(1.516320586 0.02791108936 0.04834342375)
(1.516347051 0.02781709656 0.04818062484)
(1.51952672 0.02593482286 0.04492042959)
(1.519554734 0.02592883632 0.0449100621)
(1.386031032 0.02592941374 0.04491106048)
(1.386254072 0.02597926185 0.04499740154)
(1.38646996 0.02603252232 0.0450896509)
(1.386475563 0.02603395097 0.04509212449)
(1.386881113 0.02614894509 0.04529130086)
(1.386897802 0.0261541158 0.04530025646)
(1.3871696 0.02624408342 0.04545608535)
(1.387292385 0.02628839947 0.04553284124)
(1.387343168 0.02630746923 0.04556587338)
(1.38747859 0.02636055835 0.04565782845)
(1.387508988 0.02637290955 0.04567921907)
(1.387667179 0.0264403373 0.04579600692)
(1.387817979 0.02650970407 0.04591615498)
(1.387827396 0.02651419118 0.04592392594)
(1.387961626 0.0265809726 0.0460395962)
(1.387989283 0.02659535408 0.04606450722)
(1.388098121 0.0266541224 0.04616629332)
(1.388142705 0.02667926066 0.04620983452)
(1.388227582 0.02672914416 0.04629623517)
(1.388287306 0.02676580846 0.0463597402)
(1.388306618 0.02677799016 0.04638084024)
(1.388419628 0.0268525891 0.04651004821)
(1.388525248 0.02692811377 0.04664086178)
(1.38854897 0.0269459784 0.04667180404)
(1.388623714 0.02700455114 0.04677325487)
(1.388665795 0.0270393379 0.04683350772)
(1.388715148 0.02708190121 0.04690723121)
(1.388773084 0.02713469602 0.04699867219)
(1.389088988 0.02750954777 0.04764793441)
(1.389103413 0.02753267623 0.04768799618)
(1.389243364 0.02784077823 0.04822164401)
(1.389244199 0.02784334682 0.04822609201)
(1.389291525 0.02815757878 0.04877035692)
(1.389291525 0.02816099487 0.04877627268)
(1.389291048 0.0281295646 0.04872183502)
(1.389291167 0.02813477069 0.04873085395)
(1.389269114 0.02794084698 0.04839496687)
(1.389265418 0.02792394906 0.04836569726)
(1.389262438 0.02791121043 0.0483436361)
(1.389263988 0.02791762352 0.04835474119)
(1.389253259 0.02787494846 0.0482808277)
(1.389251471 0.0278685037 0.04826966673)
(1.389179826 0.02767482959 0.04793420807)
(1.389207721 0.02773929574 0.04804586992)
(1.389214873 0.02775770426 0.04807775468)
(1.389137864 0.02759212069 0.04779095575)
(1.389160752 0.02763548493 0.04786606506)
(1.389033079 0.02742708102 0.04750509933)
(1.388958335 0.02733071335 0.04733818397)
(1.389013648 0.02740065008 0.04745931923)
(1.388877749 0.02723936737 0.04717996716)
(1.388948917 0.02731951699 0.04731879383)
(1.388799787 0.02716016956 0.0470427908)
(1.387076378 0.02621199004 0.0454005003)
(1.386679053 0.02608910576 0.04518765584)
(1.386254907 0.02597946487 0.04499775171)
(1.386028409 0.02592885308 0.04491009191)
(1.389285684 0.0280449558 0.04857528582)
(1.389289379 0.02808987349 0.04865308478)
(1.389289618 0.02809500508 0.04866197333)
(1.51628828 0.02814518474 0.04875801131)
(1.389285922 0.02804269269 0.04857267067)
(1.389269829 0.02793685347 0.04839113355)
(1.389296412 0.02813831717 0.04875000566)
(2.208441496 0.0281573385 0.04876994342)
(2.208441496 0.02816044539 0.04877565056)
(2.208222866 0.02748462558 0.04760476574)
(2.20818305 0.02742708102 0.04750509933)
(2.208115816 0.02733970433 0.04735375568)
(2.208108187 0.02733071335 0.04733818397)
(2.208041191 0.0272539407 0.04720520973)
(2.208020687 0.02723186836 0.04716697708)
(2.207959652 0.02716972679 0.04705934599)
(2.207923174 0.02713468671 0.04699865729)
(2.20787096 0.02708701044 0.04691607878)
(2.207815886 0.02703933418 0.04683350027)
(2.207775116 0.02700575069 0.04677533358)
(2.20769906 0.02694597282 0.04667179286)
(2.207672358 0.02692592144 0.04663706571)
(2.207562208 0.02684750594 0.04650124535)
(2.207456589 0.02677799016 0.04638084024)
(2.207437277 0.02676578984 0.0463597104)
(2.207319975 0.02669497952 0.04623705894)
(2.207292557 0.02667926997 0.04620985314)
(2.207175732 0.0266146604 0.04609794542)
(2.207139254 0.02659533918 0.04606447741)
(2.207024336 0.02653698809 0.04596341029)
(2.206977367 0.02651414461 0.04592384398)
(2.206865311 0.02646193467 0.04583341628)
(2.206806898 0.02643582784 0.04578819498)
(2.206699133 0.02638950013 0.04570795223)
(2.206628561 0.02636052854 0.0456577763)
(2.206525087 0.02631969377 0.04558704793)
(2.206442356 0.02628838271 0.04553281516)
(2.206110001 0.02617380023 0.04533435032)
(2.206047535 0.02615407482 0.04530018568)
(2.205893993 0.02610775083 0.04521995038)
(2.205839872 0.02609216981 0.04519296438)
(2.205671072 0.02604590356 0.04511282966)
(2.205625296 0.0260339193 0.04509206861)
(2.205602407 0.02602801472 0.04508184269)
(2.205441952 0.02598825283 0.04501297697)
(2.205404758 0.02597943693 0.04499770328)
(2.205400467 0.02597843856 0.04499597475)
(2.206319571 0.02624408342 0.04545608535)
(2.206248522 0.02621951699 0.04541353509)
(2.206343651 0.026252551 0.04547075182)
(2.208253384 0.02753267065 0.047687985)
(2.208310604 0.02763549425 0.04786607996)
(2.208273649 0.02756685764 0.04774719849)
(2.208393812 0.02784232236 0.04822431877)
(2.208387852 0.02782273479 0.04819038883)
(2.208400488 0.02786471881 0.04826311022)
(2.208410501 0.02790259197 0.04832870886)
(2.208419323 0.02794106118 0.04839533567)
(2.208415031 0.02792206593 0.04836243764)
(2.208427191 0.02798388712 0.04846951365)
(2.208441257 0.02813293971 0.04872768)
(2.208317757 0.0276496578 0.04789061099)
(2.208355188 0.02773305774 0.04803506285)
(2.208436012 0.02804270759 0.04857265577)
(2.2084198 0.02793680876 0.04839118198)
(2.208438158 0.02807388827 0.04862540215)
(2.208412409 0.02791108936 0.04834342375)
(2.208385944 0.02781709656 0.04818062484)
(2.205206394 0.02593482286 0.04492042959)
(2.205178261 0.02592883632 0.0449100621)
(2.338701963 0.02592941374 0.04491106048)
(2.338479042 0.02597926185 0.04499740154)
(2.338263035 0.02603252232 0.0450896509)
(2.338257551 0.02603395097 0.04509212449)
(2.337852001 0.02614894509 0.04529130086)
(2.337835312 0.0261541158 0.04530025646)
(2.337563276 0.02624408342 0.04545608535)
(2.337440491 0.02628839947 0.04553284124)
(2.337389708 0.02630746923 0.04556587338)
(2.337254286 0.02636055835 0.04565782845)
(2.337224007 0.02637290955 0.04567921907)
(2.337065697 0.0264403373 0.04579600692)
(2.336915016 0.02650970407 0.04591615498)
(2.336905479 0.02651419118 0.04592392594)
(2.33677125 0.0265809726 0.0460395962)
(2.336743593 0.02659535408 0.04606450722)
(2.336634874 0.0266541224 0.04616629332)
(2.33659029 0.02667926066 0.04620983452)
(2.336505413 0.02672914416 0.04629623517)
(2.336445808 0.02676580846 0.0463597402)
(2.336426497 0.02677799016 0.04638084024)
(2.336313486 0.0268525891 0.04651004821)
(2.336207628 0.02692811377 0.04664086178)
(2.336184025 0.0269459784 0.04667180404)
(2.336109161 0.02700455114 0.04677325487)
(2.3360672 0.0270393379 0.04683350772)
(2.336017847 0.02708190121 0.04690723121)
(2.335959911 0.02713469602 0.04699867219)
(2.335644007 0.02750954777 0.04764793441)
(2.335629463 0.02753267623 0.04768799618)
(2.335489511 0.02784077823 0.04822164401)
(2.335488796 0.02784334682 0.04822609201)
(2.335441589 0.02815757878 0.04877035692)
(2.335441589 0.02816099487 0.04877627268)
(2.335441828 0.0281295646 0.04872183502)
(2.335441828 0.02813477069 0.04873085395)
(2.335463762 0.02794084698 0.04839496687)
(2.335467577 0.02792394906 0.04836569726)
(2.335479736 0.02787494846 0.0482808277)
(2.335470438 0.02791121043 0.0483436361)
(2.335481644 0.0278685037 0.04826966673)
(2.335553169 0.02767482959 0.04793420807)
(2.335525274 0.02773929574 0.04804586992)
(2.335518122 0.02775770426 0.04807775468)
(2.335595131 0.02759212069 0.04779095575)
(2.335572243 0.02763548493 0.04786606506)
(2.335700035 0.02742708102 0.04750509933)
(2.33577466 0.02733071335 0.04733818397)
(2.335719347 0.02740065008 0.04745931923)
(2.335855246 0.02723936737 0.04717996716)
(2.335783958 0.02731951699 0.04731879383)
(2.335933208 0.02716016956 0.0470427908)
(2.337656736 0.02621199004 0.0454005003)
(2.338053942 0.02608910576 0.04518765584)
(2.338478088 0.02597946487 0.04499775171)
(2.338704586 0.02592885308 0.04491009191)
(2.335469007 0.02791762352 0.04835474491)
(2.335452318 0.02800592408 0.04850768298)
(2.335447311 0.0280449558 0.04857528582)
(2.335443735 0.02808987349 0.04865308478)
(2.335439444 0.02815102227 0.04876480624)
(2.208395481 0.02784137987 0.0482141003)
(2.208442211 0.02815891244 0.04877015948)
(2.335487366 0.02784145251 0.04821292683)
(2.335447073 0.02804381959 0.04857201874)
(2.335463285 0.0279395245 0.04838959128)
(2.335436583 0.02814958431 0.04874350131)
(1.395059705 0.04079303518 0.06795583665)
(1.392140627 0.04031775519 0.06823024154)
(1.392764568 0.03882037476 0.06909475476)
(1.396413088 0.03825942799 0.06941861659)
(1.391981244 0.04028870538 0.06824701279)
(1.391105294 0.0391283147 0.06891696155)
(1.390906692 0.04007859901 0.0683683157)
(1.390296936 0.03930494189 0.0688149929)
(1.390193701 0.03991824016 0.06846090406)
(1.389878631 0.03941064328 0.0687539652)
(1.510196209 0.03840657324 0.06933366507)
(1.510523319 0.03845496476 0.0693057254)
(1.513442397 0.03893024474 0.06903132051)
(1.512818456 0.04042762518 0.06816680729)
(1.509169936 0.04098857194 0.06784294546)
(1.51360178 0.03895929456 0.06901454926)
(1.51447773 0.04011968523 0.0683446005)
(1.514676332 0.03916940093 0.06889324635)
(1.515286088 0.03994305804 0.06844656914)
(1.515389323 0.03932975978 0.06880065799)
(1.515704393 0.03983735666 0.06850759685)
(1.389839053 0.03982649371 0.06851387024)
(1.389631391 0.03976566344 0.06854899228)
(1.389649391 0.03947675228 0.06871579587)
(1.389515281 0.03972759098 0.06857097149)
(1.389517665 0.03951961175 0.0686910525)
(1.389403582 0.03968565911 0.06859518588)
(1.389389634 0.03956817463 0.06866300851)
(1.515743971 0.03942150623 0.06874769181)
(1.515951633 0.03948233649 0.06871256977)
(1.515933633 0.03977124766 0.06854576617)
(1.516067743 0.03952040896 0.06869059056)
(1.516065359 0.03972838819 0.06857050955)
(1.516179442 0.03956234083 0.06866637617)
(1.51619339 0.03967982531 0.06859855354)
(1.503993988 0.03759624809 0.06980150193)
(1.501463532 0.04194105044 0.067293033)
(1.494453549 0.03658926859 0.07038288563)
(1.490567803 0.04301350564 0.0666738525)
(1.482565999 0.03558443487 0.07096302509)
(1.477406263 0.04402977973 0.06608710438)
(1.469233751 0.03472197056 0.07146096975)
(1.464329123 0.04477082938 0.06565925479)
(1.458362937 0.03424408659 0.0717368722)
(1.456892729 0.04504757002 0.06549948454)
(1.452791452 0.03412473947 0.07180578262)
(1.452791452 0.04512326047 0.06545577943)
(1.448690295 0.03420042992 0.07176207751)
(1.447220087 0.04500391334 0.06552468985)
(1.441253901 0.03447717056 0.07160230726)
(1.436349273 0.04452602938 0.0658005923)
(1.428176761 0.0352182202 0.07117445767)
(1.423017025 0.04366356507 0.06629853696)
(1.415015221 0.0362344943 0.070587717)
(1.411129475 0.04265873134 0.06687867641)
(1.404119492 0.0373069495 0.06996852905)
(1.401589036 0.04165175185 0.06746006012)
(1.395386815 0.0408414267 0.06792789698)
(1.516222239 0.02806037664 0.0487013571)
(1.516236544 0.02806980349 0.04870183021)
(1.51621449 0.02805531025 0.0487007089)
(1.516290545 0.02815848961 0.04876893014)
(1.516234517 0.02814370766 0.04866053164)
(1.516250372 0.02813876793 0.04867066815)
(1.516286969 0.02815104648 0.04874692485)
(1.516285062 0.02814652771 0.04873471707)
(1.389360785 0.02814642526 0.04865167663)
(1.389368415 0.0281483978 0.04864696413)
(1.389292479 0.02815588936 0.04877043515)
(1.389296055 0.02814055234 0.04875298217)
(1.389297962 0.02813223936 0.04874296486)
(2.32967329 0.03845496476 0.0693057254)
(2.332592487 0.03893024474 0.06903132051)
(2.331968546 0.04042762518 0.06816680729)
(2.328320026 0.04098857194 0.06784294546)
(2.332751751 0.03895929456 0.06901454926)
(2.333627701 0.04011968523 0.0683446005)
(2.333826303 0.03916940093 0.06889324635)
(2.334436178 0.03994305804 0.06844656914)
(2.334539175 0.03932975978 0.06880065799)
(2.334854364 0.03983735666 0.06850759685)
(2.214536905 0.0408414267 0.06792789698)
(2.214209795 0.04079303518 0.06795583665)
(2.211290598 0.04031775519 0.06823024154)
(2.211914539 0.03882037476 0.06909475476)
(2.215563059 0.03825942799 0.06941861659)
(2.211131334 0.04028870538 0.06824701279)
(2.210255384 0.0391283147 0.06891696155)
(2.210056782 0.04007859901 0.0683683157)
(2.209446907 0.03930494189 0.0688149929)
(2.209343672 0.03991824016 0.06846090406)
(2.209028721 0.03941064328 0.0687539652)
(2.334893942 0.03942150623 0.06874769181)
(2.335101604 0.03948233649 0.06871256977)
(2.335083723 0.03977124766 0.06854576617)
(2.335217714 0.03952040896 0.06869059056)
(2.33521533 0.03972838819 0.06857050955)
(2.335329533 0.03956234083 0.06866637617)
(2.335343361 0.03967982531 0.06859855354)
(2.208989143 0.03982649371 0.06851387024)
(2.208781242 0.03976566344 0.06854899228)
(2.208799362 0.03947675228 0.06871579587)
(2.208665371 0.03972759098 0.06857097149)
(2.208667517 0.03951961175 0.0686910525)
(2.208553553 0.03968565911 0.06859518588)
(2.220739126 0.04165175185 0.06746006012)
(2.223269463 0.0373069495 0.06996852905)
(2.230279446 0.04265873134 0.06687867641)
(2.234165192 0.0362344943 0.070587717)
(2.242166996 0.04366356507 0.06629853696)
(2.247326851 0.0352182202 0.07117445767)
(2.255499125 0.04452602938 0.0658005923)
(2.260403872 0.03447717056 0.07160230726)
(2.266370058 0.04500391334 0.06552468985)
(2.267840385 0.03420042992 0.07176207751)
(2.271941423 0.04512326047 0.06545577943)
(2.271941423 0.03412473947 0.07180578262)
(2.2760427 0.04504757002 0.06549948454)
(2.277512789 0.03424408659 0.0717368722)
(2.283479214 0.04477082938 0.06565925479)
(2.288383722 0.03472197056 0.07146096975)
(2.296556234 0.04402977973 0.06608710438)
(2.301716089 0.03558443487 0.07096302509)
(2.309717894 0.04301350564 0.0666738525)
(2.313603401 0.03658926859 0.07038288563)
(2.320613384 0.04194105044 0.067293033)
(2.323143959 0.03759624809 0.06980150193)
(2.32934618 0.03840657324 0.06933366507)
(2.33537221 0.02806037664 0.0487013571)
(2.33536458 0.02805531025 0.0487007089)
(2.335440397 0.02815848961 0.04876893014)
(2.335367441 0.02814742923 0.048648417)
(2.33537817 0.02814460546 0.04865490273)
(2.335384607 0.02814370766 0.04866053164)
(2.335400343 0.02813876793 0.04867066815)
(2.335437059 0.02815104648 0.04874692485)
(2.208496332 0.02814212069 0.04866007715)
(2.208441496 0.02816099487 0.04877627268)
(2.208475113 0.02808695659 0.04870564863)
(2.208498478 0.02806940302 0.04870343208)
(2.208490133 0.02807447873 0.04870272428)
(2.208446026 0.02814055234 0.04875298217)
(2.792641401 -0.01973599754 -0.04952009395)
(2.792641401 -0.01974753104 -0.04951920733)
(2.792641401 -0.02009402029 -0.04949954525)
(2.792641401 -0.02045593411 -0.04949323833)
(2.792641401 -0.02061948739 -0.04949514568)
(2.792641401 -0.02097452804 -0.04950946197)
(2.792641401 -0.02132880315 -0.04953766987)
(2.792641401 -0.02141768113 -0.04954694211)
(2.792641401 -0.02168235928 -0.049579788)
(2.792641401 -0.02175022662 -0.04958947748)
(2.792641401 -0.02273919433 -0.04979066178)
(2.792641401 -0.02309035882 -0.04988984019)
(2.792641401 -0.0236964263 -0.05009691417)
(2.792641401 -0.02370187826 -0.05009898916)
(2.792641401 -0.02417030744 -0.05029197037)
(2.792641401 -0.02432790212 -0.05036357418)
(2.792641401 -0.0245078858 -0.05044959858)
(2.792641401 -0.02463523485 -0.05051325634)
(2.792641401 -0.02521308139 -0.05083227903)
(2.792641401 -0.0252382122 -0.0508473143)
(2.792641401 -0.02630686387 -0.05158298835)
(2.792641401 -0.026405463 -0.05166081712)
(2.792641401 -0.02786803059 -0.0530157797)
(2.792641401 -0.02791411616 -0.0530638285)
(2.792641401 -0.02746789902 -0.05261008814)
(2.792641401 -0.02753081173 -0.05267236382)
(2.792641401 -0.0275782086 -0.05271967873)
(2.792641401 -0.02758654021 -0.05272802711)
(2.792641401 -0.02720883302 -0.05236035585)
(2.792641401 -0.02728020772 -0.0524280481)
(2.792641401 -0.02733687125 -0.05248239636)
(2.792641401 -0.02652771398 -0.05175974593)
(2.792641401 -0.02666128241 -0.05187093094)
(2.792641401 -0.02669317648 -0.05189795792)
(2.792641401 -0.02672986127 -0.05192927271)
(2.792641401 -0.02582650445 -0.05122838542)
(2.792641401 -0.02588564344 -0.05126988143)
(2.792641401 -0.02538006194 -0.05093404651)
(2.792641401 -0.02549958043 -0.05100962892)
(2.792641401 -0.02553405613 -0.05103186145)
(2.792641401 -0.02553894557 -0.05103503168)
(2.792641401 -0.02484175004 -0.05062150955)
(2.792641401 -0.02493866161 -0.05067449063)
(2.792641401 -0.02497915551 -0.05069704726)
(2.792641401 -0.0234830156 -0.05001869798)
(2.792641401 -0.0223875083 -0.04970610514)
(2.792641401 -0.0224105306 -0.04971119389)
(2.792641401 -0.02268087491 -0.04977562651)
(2.792641401 -0.02199979872 -0.04962961003)
(2.792641401 -0.02203524671 -0.04963588342)
(2.792641401 -0.02001190931 -0.04950299487)
(2.792641401 -0.02008111216 -0.04950003698)
(2.792641401 -0.01930657774 -0.04956369475)
(2.792641401 -0.01938176528 -0.04955455288)
(2.792641401 -0.01868438162 -0.04966425151)
(2.792641401 -0.01875514351 -0.04965054616)
(2.792641401 -0.01903124712 -0.04960266873)
(2.792641401 -0.01810491085 -0.04979900643)
(2.792641401 -0.0183411222 -0.04973917454)
(2.792641401 -0.01778452657 -0.04989122972)
(2.792641401 -0.01800144091 -0.04982738197)
(2.792641401 -0.01746786386 -0.0499952957)
(2.792641401 -0.01766532101 -0.04992887378)
(2.792641401 -0.02824370377 -0.05341313407)
(2.792641401 -0.02827647515 -0.05344827101)
(2.792641401 -0.02796371654 -0.05311579257)
(2.792641401 -0.028058948 -0.05321623385)
(2.792641401 -0.02815373428 -0.05331696197)
(2.792641401 -0.02819704637 -0.05336320028)
(2.792641401 -0.02820409834 -0.05337074026)
(2.792641401 -0.02777188271 -0.0529163368)
(2.792641401 -0.02767527103 -0.05281759053)
(2.792641401 -0.02706861123 -0.05222993344)
(2.792641401 -0.02739405446 -0.05253778398)
(2.792641401 -0.02690557018 -0.05208264664)
(2.792641401 -0.02698348649 -0.05215244368)
(2.792641401 -0.02702181786 -0.05218717456)
(2.792641401 -0.02614712156 -0.05146057531)
(2.792641401 -0.02630598843 -0.0515823029)
(2.792641401 -0.02603482269 -0.05137721822)
(2.792641401 -0.02611661144 -0.05143771321)
(2.792641401 -0.02571889944 -0.05115441233)
(2.792641401 -0.02582435496 -0.05122689158)
(2.792641401 -0.02517219633 -0.05080803111)
(2.792641401 -0.02401673235 -0.05022546649)
(2.792641401 -0.02382876165 -0.05014838278)
(2.792641401 -0.02344105951 -0.05000400543)
(2.792641401 -0.02273751982 -0.04979022592)
(2.792641401 -0.02108407952 -0.04951669648)
(2.792641401 -0.01842859574 -0.04971874133)
(2.575665236 -0.02779637277 -0.04927539825)
(2.575519085 -0.02774767391 -0.04916004837)
(2.575381041 -0.0277029071 -0.04905059189)
(2.575819969 -0.0278490819 -0.04939677939)
(2.575107574 -0.02761724778 -0.0488313958)
(2.574575901 -0.02817402221 -0.04798377678)
(2.736108303 -0.09673022479 0.1726626009)
(2.738157749 -0.0966610387 0.172702536)
(2.740210056 -0.09663796425 0.1727158576)
(2.734064579 -0.09684543312 0.1725960821)
(2.732029438 -0.09700649977 0.1725030839)
(2.730005741 -0.09721319377 0.1723837554)
(2.727996349 -0.09746523201 0.1722382456)
(2.726003885 -0.09776226431 0.1720667481)
(2.727996349 -0.1004300788 0.1705264896)
(2.726003885 -0.1001330465 0.1706979722)
(2.730005741 -0.100682117 0.1703809798)
(2.732029438 -0.1008888111 0.1702616364)
(2.734064579 -0.1010498777 0.1701686531)
(2.736108303 -0.1011650786 0.1701021343)
(2.738157749 -0.1012342721 0.1700621843)
(2.740210056 -0.1012573466 0.1700488627)
(2.722601175 0.1978953034 0.0007358881994)
(2.722571611 0.1978953034 0.0007299006102)
(2.722095251 0.1978953034 0.0004034020531)
(2.722082138 0.1978953034 0.0003725293791)
(2.722059727 0.1978953034 0.0002693207934)
(2.722058773 0.1978953034 0.0002451978798)
(2.722062111 0.1978953034 0.000293389312)
(2.722071886 0.1978953034 0.0003411460202)
(2.722066164 0.1978953034 0.0003173490695)
(2.722110987 0.1978953034 0.0004336402926)
(2.722129583 0.1978953034 0.0004631227639)
(2.722150803 0.1978953034 0.0004917312763)
(2.575519085 0.05644768849 0.0005498333485)
(2.575665236 0.05657193065 0.0005653333501)
(2.575184345 0.05616347119 0.0005088041653)
(2.575107574 0.05609785393 0.000498460955)
(2.575381041 0.05633050948 0.0005338740884)
(2.575819969 0.05670340732 0.0005803770619)
(2.722214699 0.1978953034 0.0005586858606)
(2.722174644 0.1978953034 0.0005193511024)
(2.722403526 0.1978953034 0.000676309166)
(2.722364902 0.1978953034 0.0006584361545)
(2.722328186 0.1978953034 0.0006389058544)
(2.722260237 0.1978953034 0.0005951930652)
(2.722293139 0.1978953034 0.0006177966134)
(2.722527742 0.1978953034 0.0007193028578)
(2.722485065 0.1978953034 0.0007068036939)
(2.722443581 0.1978953034 0.0006924532354)
(2.578127146 0.05867767334 0.0007115948247)
(2.577809095 0.0584038794 0.0007006576052)
(2.578445673 0.05895109102 0.0007213050849)
(2.722429991 0.1978953034 -0.0006872681552)
(2.722471237 0.1978953034 -0.0007022232166)
(2.722513437 0.1978953034 -0.0007153453771)
(2.722556829 0.1978953034 -0.000726582075)
(2.722601175 0.1978953034 -0.0007358881994)
(2.722281933 0.1978953034 -0.0006104237982)
(2.722316265 0.1978953034 -0.0006320407847)
(2.722352505 0.1978953034 -0.0006521064206)
(2.722390413 0.1978953034 -0.0006705402047)
(2.575879097 0.0567541346 -0.0005855054478)
(2.57603097 0.05688298494 -0.0005990067148)
(2.575591087 0.05650929734 -0.0005572806112)
(2.722234249 0.1978953034 -0.0005752805737)
(2.574932098 0.05594823882 -0.0004722498124)
(2.575031757 0.05603319034 -0.0004876666353)
(2.574661016 0.05571538955 -0.0004252920044)
(2.57461834 0.05567884445 -0.0004164412676)
(2.574575901 0.05564218014 -0.0004075314791)
(2.722090483 0.1978953034 -0.000393242517)
(2.722097635 0.1978953034 -0.0004084891407)
(2.722113848 0.1978953034 -0.0004386097426)
(2.722132921 0.1978953034 -0.0004679546983)
(2.722154617 0.1978953034 -0.0004964062828)
(2.722166538 0.1978953034 -0.0005104242591)
(2.722191811 0.1978953034 -0.0005371601437)
(2.722059488 0.1978953034 -0.0002666474611)
(2.722059965 0.1978953034 -0.0002746759856)
(2.722062826 0.1978953034 -0.0002987250045)
(2.722067356 0.1978953034 -0.0003226532426)
(2.722073555 0.1978953034 -0.0003464067413)
(2.722084045 0.1978953034 -0.0003777136444)
(2.722058773 0.1978953034 -0.0002451978798)
(2.722429991 -0.09835246205 0.1717260033)
(2.722471237 -0.09833951294 0.1717334688)
(2.722513437 -0.09832814336 0.1717400402)
(2.722556829 -0.0983184129 0.1717456579)
(2.722601175 -0.09831035882 0.1717503071)
(2.722281933 -0.09841901064 0.1716875732)
(2.722316265 -0.09840028733 0.1716983914)
(2.722352505 -0.09838291258 0.1717084199)
(2.722390413 -0.09836694598 0.1717176288)
(2.575879097 -0.027870005 0.04944327474)
(2.57603097 -0.02792273648 0.04956161231)
(2.575591087 -0.02777202986 0.04921712726)
(2.722234249 -0.09844944626 0.1716700047)
(2.574932098 -0.02756513841 0.04868872091)
(2.575031757 -0.0275942646 0.0487699993)
(2.574661016 -0.02748938091 0.04846359044)
(2.57461834 -0.02747877315 0.04842751473)
(2.574575901 -0.02746815793 0.04839130864)
(2.722090483 -0.0986070931 0.1715789884)
(2.722097635 -0.09859389067 0.1715866029)
(2.722113848 -0.09856780618 0.171601668)
(2.722132921 -0.09854239225 0.1716163456)
(2.722154617 -0.09851775318 0.1716305614)
(2.722166538 -0.09850561619 0.1716375798)
(2.722191811 -0.09848245978 0.1716509461)
(2.722059488 -0.09871672839 0.1715156883)
(2.722059965 -0.098709777 0.1715196967)
(2.722062826 -0.09868895262 0.1715317219)
(2.722067356 -0.09866822511 0.1715436876)
(2.722073555 -0.09864765406 0.1715555638)
(2.722084045 -0.09862054139 0.1715712249)
(2.722058773 -0.09873530269 0.1715049595)
(2.722601175 -0.099584952 0.1710144132)
(2.722571611 -0.09957976639 0.1710174084)
(2.722095251 -0.09929700941 0.1711806655)
(2.722082138 -0.09927027673 0.1711961031)
(2.722059727 -0.09918089211 0.1712477058)
(2.722058773 -0.09916000068 0.1712597609)
(2.722062111 -0.09920173883 0.1712356657)
(2.722071886 -0.09924309701 0.171211794)
(2.722066164 -0.0992224887 0.1712236851)
(2.722110987 -0.0993231982 0.1711655408)
(2.722129583 -0.09934873134 0.1711508036)
(2.722150803 -0.09937350452 0.1711364985)
(2.575519085 -0.02870001458 0.04861021414)
(2.575665236 -0.02877555974 0.0487100631)
(2.575184345 -0.02852237411 0.04838459194)
(2.575107574 -0.02848060615 0.04833293706)
(2.575381041 -0.02862760425 0.04851671681)
(2.575819969 -0.02885432355 0.04881640151)
(2.722214699 -0.09943149239 0.1711030155)
(2.722174644 -0.09939742833 0.1711226851)
(2.722403526 -0.09953335673 0.1710442156)
(2.722364902 -0.09951787442 0.1710531414)
(2.722328186 -0.0995009616 0.1710629165)
(2.722260237 -0.0994631052 0.1710847616)
(2.722293139 -0.09948267788 0.1710734665)
(2.722527742 -0.09957058728 0.1710227132)
(2.722485065 -0.09955976158 0.1710289568)
(2.722443581 -0.09954733402 0.1710361391)
(2.578127146 -0.02995509654 0.05046055838)
(2.577809095 -0.02980872616 0.05022891238)
(2.578445673 -0.03010021336 0.05069248751)
(2.722601175 -0.09831035882 -0.1717503071)
(2.722571611 -0.09831554443 -0.1717473119)
(2.722095251 -0.09859829396 -0.1715840697)
(2.722082138 -0.09862503409 -0.1715686321)
(2.722059727 -0.09871441871 -0.1715170294)
(2.722058773 -0.09873530269 -0.1715049595)
(2.722062111 -0.09869357198 -0.1715290546)
(2.722071886 -0.09865221381 -0.1715529412)
(2.722066164 -0.09867282212 -0.1715410352)
(2.722110987 -0.09857211262 -0.1715991795)