/*--------------------------------*- C++ -*----------------------------------*\
| =========                 |                                                 |
| \\      /  F ield         | OpenFOAM: The Open Source CFD Toolbox           |
|  \\    /   O peration     | Version:  v2406                                 |
|   \\  /    A nd           | Website:  www.openfoam.com                      |
|    \\/     M anipulation  |                                                 |
\*---------------------------------------------------------------------------*/
FoamFile
{
    version     2.0;
    format      ascii;
    class       dictionary;
    object      fvOptions;
}
// * * * * * * * * * * * * * * * * * * * * * * * * * * * * * * * * * * * * * //


temperatureLimits
{
    type  limitTemperature;
	
    limitTemperatureCoeffs
    {
        selectionMode all;
        min 100.00;
        max 1000.00;
    }
}

limitVelocity
{
    type   limitVelocity;

    selectionMode all;
    max  1000.00;
}