/*--------------------------------*- C++ -*----------------------------------*\
  =========                 |
  \\      /  F ield         | OpenFOAM: The Open Source CFD Toolbox
   \\    /   O peration     | Website:  https://openfoam.org
    \\  /    A nd           | Version:  11
     \\/     M anipulation  |
\*---------------------------------------------------------------------------*/
FoamFile
{
    format      ascii;
    class       dictionary;
    location    "system";
    object      fvSchemes;
}
// * * * * * * * * * * * * * * * * * * * * * * * * * * * * * * * * * * * * * //

ddtSchemes
{
    default         steadyState;
}

gradSchemes
{
    default         Gauss linear;

    limited         cellLimited Gauss linear 1;
    grad(U)         $limited;
    grad(k)         $limited;
    grad(omega)     $limited;
    grad(subsetU)   $limited;
}

divSchemes
{
    default         none;

    div(phi,U)      bounded Gauss vanLeerV;//pwind;//bounded Gauss limitedLinearV 1;

    //energy          bounded Gauss linearUpwind grad(e);
    energy          bounded Gauss vanLeer;//limitedLinear 1;//bounded Gauss upwind;//bounded Gauss limitedLinear 1;
    div(phi,e)      $energy;
    div(phi,K)      $energy;
    div(phi,Ekp)    $energy;

    //turbulence      bounded Gauss linearUpwind default; 
    turbulence      bounded Gauss limitedLinear 1;//bounded Gauss upwind;
    div(phi,k)      $turbulence;
    div(phi,omega)  $turbulence;

    div(phid,p)     Gauss upwind;
    div((phi|interpolate(rho)),p)  bounded Gauss upwind;

    div(((rho*nuEff)*dev2(T(grad(U)))))    Gauss linear;
}

laplacianSchemes
{
    default         Gauss linear corrected;
}

interpolationSchemes
{
    default         linear;
}

snGradSchemes
{
    default         corrected;
}

wallDist
{
    method          meshWave;
}
// ************************************************************************* //
