/*--------------------------------*- C++ -*----------------------------------*\
  =========                 |
  \\      /  F ield         | OpenFOAM: The Open Source CFD Toolbox
   \\    /   O peration     | Website:  https://openfoam.org
    \\  /    A nd           | Version:  11
     \\/     M anipulation  |
\*---------------------------------------------------------------------------*/
FoamFile
{
    format      ascii;
    class       dictionary;
    location    "system";
    object      fvSolution;
}
// * * * * * * * * * * * * * * * * * * * * * * * * * * * * * * * * * * * * * //

solvers
{
    "rho.*"
    {
        solver          diagonal;
    }

    p
    {
        solver          PBiCGStab;         // Bi-Conjugate Gradient Stabilized
        preconditioner  DIC;             // Diagonal Incomplete LU (DILU)
        tolerance       1e-08;
        relTol          0.01;
    }
    

    e
    {
        solver          PBiCG;
        preconditioner  DILU;
        tolerance       1e-08;
        relTol          0;
    }

    "U.*"
    {
        solver          PBiCGStab;
        preconditioner  diagonal;
        tolerance       1e-10;
        relTol          0;
    }

    "(k|epsilon||nuTilda|omega|h).*"
    {
        solver          GAMG;
        smoother        GaussSeidel;
        tolerance       1e-10;
        relTol          0;
    }
}


SIMPLE
{
    residualControl
    {
        p               1e-6;
        U               1e-6;
        "(k|omega|e)"   1e-5;
    }

    nNonOrthogonalCorrectors 2;
    transonic       no;
}


relaxationFactors
{
    fields
    {
        p               0.2;
        U               0.2;
        rho             0.01;
    }
    equations
    {
        U               0.2;
        e               0.3;
        "(k|omega|nut)"     0.3;
    }
}

// ************************************************************************* //
