/*--------------------------------*- C++ -*----------------------------------*\
| =========                 |                                                |
| \\      /  F ield         | cfMesh: A library for mesh generation          | 
|  \\    /   O peration     |                                                |
|   \\  /    A nd           | Author: Franjo Juretic                         | 
|    \\/     M anipulation  | E-mail: franjo.juretic@c-fields.com            |
\*---------------------------------------------------------------------------*/

FoamFile
{
    version   2.0;
    format    ascii;
    class     dictionary;
    location  "system";
    object    meshDict;
}

// * * * * * * * * * * * * * * * * * * * * * * * * * * * * * * * * * * * * * //

#include "../parameters.cs"

surfaceFile "geometry/combined.fms";



maxCellSize 0.1;



localRefinement
{
    rocket
    {
        cellSize $rocketCellSize;
    }

}

objectRefinements
{
    box
    {
        type box;
        cellSize $boxCellSize;
        centre (1.5 0 0);
        lengthX $boxLength;
        lengthY $boxWidth;
        lengthZ $boxWidth;
    }
}

boundaryLayers
{
    patchBoundaryLayers
    {
        rocket
        {
            nLayers 5;
            thicknessRatio 1.2;
            maxFirstLayerThickness $firstLayerThickness;

            allowDiscontinuity 0;
        }
    }

    optimiseLayer true;

    optimisationParameters
    {
        nSmoothNormals 5;
        maxNumIterations 10;
        featureSizeFactor 0.4;
        reCalculateNormals true;
        relThicknessTol 0.1;
        
    }
}

renameBoundary
{
    patchBoundaryLayers
    {
        inlet
        {
             type            patch;
        }
        outlet
        {
            type            patch;    
        }
        sides
        {
            type            patch;    
        }
        rocket
        {
            type            wall;
        }
    }
}



// ************************************************************************* //