FoamFile
{
    version     2.0;
    format      ascii;
    class       dictionary;
    object      blockMeshDict;
}

// Exported by SnappyHexMesh GUI add-on for Blender v1.8
// Source file: C:\Users\pdh24\Desktop\Concordia Classes\Rockets\blend\CR-25 medium mesh.blend
// Export date: 2024-08-17 23:51:38.113671

convertToMeters 1;

// **Define Parameters for Mesh Dimensions**
xMin -6.04;
xMax  9.04;

yMin -4.04;
yMax  4.04;

zMin -4.04;
zMax  4.04;

// **Define Number of Cells**
cellSize 0.05;  // Adjust cell size as needed

nx #calc "round(($xMax - $xMin) / $cellSize)";
ny #calc "round(($yMax - $yMin) / $cellSize)";
nz #calc "round(($zMax - $zMin) / $cellSize)";

vertices
(
    ($xMin $yMin $zMin)    // Vertex 0
    ($xMax $yMin $zMin)    // Vertex 1
    ($xMax $yMax $zMin)    // Vertex 2
    ($xMin $yMax $zMin)    // Vertex 3
    ($xMin $yMin $zMax)    // Vertex 4
    ($xMax $yMin $zMax)    // Vertex 5
    ($xMax $yMax $zMax)    // Vertex 6
    ($xMin $yMax $zMax)    // Vertex 7
);

blocks
(
    hex (0 1 2 3 4 5 6 7) (150 75 75) simpleGrading (1 1 1)
);

edges
(
);

boundary
(
    
inlet
    {
        type patch;
        faces
        (

            (0 4 7 3)
            
        );
    }

outlet
    {
        type patch;
        faces
        (
           
            (2 6 5 1)
            
        );
    }

sides
    {
        type patch;
        faces
        (
            (3 7 6 2)
            (1 5 4 0)
            (0 3 2 1)
            (4 5 6 7)
        );
    }

);
