/*--------------------------------*- C++ -*----------------------------------*\
  =========                 |
  \\      /  F ield         | OpenFOAM: The Open Source CFD Toolbox
   \\    /   O peration     | Website:  https://openfoam.org
    \\  /    A nd           | Version:  11
     \\/     M anipulation  |
\*---------------------------------------------------------------------------*/
FoamFile
{
    format      ascii;
    class       dictionary;
    location    "system";
    object      controlDict;
}
// * * * * * * * * * * * * * * * * * * * * * * * * * * * * * * * * * * * * * //

application     foamRun;

solver          fluid;

startFrom       latestTime;

startTime       0;

stopAt          endTime;

endTime         1;  

deltaT         1e-06;

maxDeltaT          1e-;	

writeControl    runTime;

writeInterval   0.0001;

purgeWrite      0;

writeFormat     ascii;

writePrecision  10;	

writeCompression off;

timeFormat      general;

timePrecision   10;	

runTimeModifiable true;

adjustTimeStep  true;

maxCo   0.5;


functions
{

    #includeFunc residuals

    
    forces
    {
        type            forceCoeffs;
        libs            ("libforces.so");
        writeControl    timeStep;
        writeInterval   1;

        patches
        (
            rocket
        );

        log         true;
        rhoInf      1;
        CofR        (0 0 0);
        liftDir     (0 1 0);
        dragDir     (1 0 0);
        pitchAxis   (0 0 1);
        magUInf     618.022;
        lRef        1;
        Aref        1;
    }

    
    // yPlus calculation for wall boundary monitoring
    yPlus1
    {
        type            yPlus;
        libs            ("libfieldFunctionObjects.so");
        
        writePrecision  8;
        writeToFile     true;
        enabled         true;
        log             true;
        executeControl  timeStep;
        executeInterval 10;  // Calculate yPlus every 10 time steps
        writeControl    timeStep;
        writeInterval   10;
    }
    
}

// ************************************************************************* //
