/*--------------------------------*- C++ -*----------------------------------*\
  =========                 |
  \\      /  F ield         | OpenFOAM: The Open Source CFD Toolbox
   \\    /   O peration     | Website:  https://openfoam.org
    \\  /    A nd           | Version:  11
     \\/     M anipulation  |
\*---------------------------------------------------------------------------*/
FoamFile
{
    format      ascii;
    class       dictionary;
    location    "system";
    object      controlDict;
}
// * * * * * * * * * * * * * * * * * * * * * * * * * * * * * * * * * * * * * //
#include "./parameters.cs";

application     foamRun;

solver          fluid;

startFrom       latestTime;

startTime       0;

stopAt          endTime;

endTime         1;  

deltaT         $deltaT;

maxDeltaT          $maxDeltaT;	

writeControl    runTime;

writeInterval   $maxDeltaT;

purgeWrite      0;

writeFormat     ascii;

writePrecision  10;	

writeCompression off;

timeFormat      general;

timePrecision   10;	

runTimeModifiable true;
adjustTimeStep  true;

maxCo   $maxCo;

functions
{

    #includeFunc residuals

    
    forces
    {
        type            forceCoeffs;
        libs            ("libforces.so");
        writeControl    timeStep;
        writeInterval   1;

        patches
        (
            rocket
        );

        log         true;
        rhoInf      1;
        CofR        (0 0 0);
        liftDir     (0 1 0);
        dragDir     (1 0 0);
        pitchAxis   (0 0 1);
        magUInf     #calc "sqrt(pow($Ux,2) + pow($Uy,2) + pow($Uz,2))";
        lRef        1;
        Aref        1;
    }

    
    // yPlus calculation for wall boundary monitoring
    yPlus1
    {
        type            yPlus;
        libs            ("libfieldFunctionObjects.so");
        
        writePrecision  8;
        writeToFile     true;
        enabled         true;
        log             true;
        executeControl  runTime;
        executeInterval $maxDeltaT;  // Calculate yPlus every 10 time steps
        writeControl    runTime;
        writeInterval   $$maxDeltaT;
    }
    
}

// ************************************************************************* //
