/*--------------------------------*- C++ -*----------------------------------*\
  =========                 |
  \\      /  F ield         | OpenFOAM: The Open Source CFD Toolbox
   \\    /   O peration     | Website:  https://openfoam.org
    \\  /    A nd           | Version:  11
     \\/     M anipulation  |
\*---------------------------------------------------------------------------*/
FoamFile
{
    format      ascii;
    class       dictionary;
    location    "system";
    object      fvSchemes;
}
// * * * * * * * * * * * * * * * * * * * * * * * * * * * * * * * * * * * * * //

ddtSchemes
{
    default         steadyState;
}

gradSchemes
{
    default         Gauss linear;

    limited         cellLimited Gauss linear 1;
    grad(U)         $limited;
    grad(k)         $limited;
    grad(omega)     $limited;
    grad(subsetU)   $limited;
}

divSchemes
{
    default         none;

    div(phi,U)      bounded Gauss linearUpwind limited;

    energy          bounded Gauss linearUpwind limited;
    div(phi,e)      $energy;
    div(phi,K)      $energy;
    div(phi,Ekp)    $energy;

    turbulence      bounded Gauss upwind;
    div(phi,k)      $turbulence;
    div(phi,omega)  $turbulence;

    div(phid,p)     Gauss upwind;
    div((phi|interpolate(rho)),p)  bounded Gauss upwind;

    div(((rho*nuEff)*dev2(T(grad(U)))))    Gauss linear;
}

laplacianSchemes
{
    default         Gauss linear corrected;
}

interpolationSchemes
{
    default         linear;
}

snGradSchemes
{
    default         corrected;
}

wallDist
{
    method          meshWave;
}

/*


crankNicolsonCoeff  0.5;

ddtSchemes
{
    default         steadyState;//CrankNicolson $crankNicolsonCoeff; // Replace <coeff> with your desired blending factor, e.g., 0.5
}

/*
ddtSchemes
{
    default         CrankNicolson;//backward;
    //default         steadyState;
}
gradSchemes
{
    default         Gauss linear limited 0.5;
}

divSchemes
{
    default         none;

    div(phi,U)      Gauss limitedLinearV 1;

    div(phi,e)      Gauss limitedLinear 1;
    div(phid,p)     Gauss limitedLinear 1;
    div(phi,K)      Gauss limitedLinear 1;
    div(phiv,p)     Gauss limitedLinear 1;
    div(phi,Ekp)     Gauss limitedLinear 1;


    turbulence      Gauss upwind;
    div(phi,k)      $turbulence;
    div(phi,epsilon) $turbulence;

    div(((rho*nuEff)*dev2(T(grad(U))))) Gauss linear;


    div(phi,omega)  Gauss upwind;        // Specific dissipation rate
}

gradSchemes
{
    default         Gauss linear;
}


laplacianSchemes
{
    default         Gauss linear corrected;
}

interpolationSchemes
{
    default         linear;
}

snGradSchemes
{
    default         corrected;
}


wallDist
{
    method          meshWave;
}

*/
// ************************************************************************* //
