/*--------------------------------*- C++ -*----------------------------------*\
  =========                 |
  \\      /  F ield         | OpenFOAM: The Open Source CFD Toolbox
   \\    /   O peration     | Website:  https://openfoam.org
    \\  /    A nd           | Version:  11
     \\/     M anipulation  |
\*---------------------------------------------------------------------------*/
FoamFile
{
    format      ascii;
    class       dictionary;
    location    "system";
    object      fvSchemes;
}
// * * * * * * * * * * * * * * * * * * * * * * * * * * * * * * * * * * * * * //

crankNicolsonCoeff  0.5;

ddtSchemes
{
    default         CrankNicolson $crankNicolsonCoeff; // Replace <coeff> with your desired blending factor, e.g., 0.5
}

/*
ddtSchemes
{
    default         CrankNicolson;//backward;
    //default         steadyState;
}*/

gradSchemes
{
    default         Gauss linear limited 0.5;
}

divSchemes
{
    default         none;

    div(phi,U)      Gauss limitedLinearV 1;

    div(phi,e)      Gauss limitedLinear 1;
    div(phid,p)     Gauss limitedLinear 1;
    div(phi,K)      Gauss limitedLinear 1;
    div(phiv,p)     Gauss limitedLinear 1;

    turbulence      Gauss upwind;
    div(phi,k)      $turbulence;
    div(phi,epsilon) $turbulence;

    div(((rho*nuEff)*dev2(T(grad(U))))) Gauss linear;


    div(phi,omega)  Gauss upwind;        // Specific dissipation rate
}

gradSchemes
{
    default         Gauss linear;
}


laplacianSchemes
{
    default         Gauss linear corrected;
}

interpolationSchemes
{
    default         linear;
}

snGradSchemes
{
    default         corrected;
}


wallDist
{
    method          meshWave;
}


// ************************************************************************* //
