FoamFile
{
    version         2;
    format          ascii;
    class           dictionary;
    object          snappyHexMeshDict;
}




// Exported by SnappyHexMesh GUI add-on for Blender v1.8
// Source file: C:\Users\pdh24\Desktop\Concordia Classes\Rockets\blend\CR-25 medium mesh.blend
// Export date: 2024-08-18 19:03:03.953247

// Details about SnappyHexMesh parameters can be found in annotated caseDicts:
// - For openfoam.org (development version), see
//   https://github.com/OpenFOAM/OpenFOAM-dev/blob/master/etc/caseDicts/annotated/snappyHexMeshDict
// - For openfoam.com (development version), see
//   https://develop.openfoam.com/Development/openfoam/-/blob/master/etc/caseDicts/annotated/snappyHexMeshDict
// See also links in https://openfoamwiki.net/index.php/SnappyHexMesh

#include "parameters.cs";

castellatedMesh true;
snap            true;
addLayers       true;

mergePatchFaces false;  // Avoid face merging to increase layer coverage

geometry
{
    rocket
    {
        type triSurfaceMesh;
        file "rocket.stl";
        // Min Bounds = [ 9.50825e-07 -7.36521e-02 -1.24298e-01]
        // Max Bounds = [ 3.23994e+00  1.41840e-01  1.24298e-01]
        // Area = 1.14863e+00
    }
}

castellatedMeshControls
{
    maxLocalCells   100000;
    maxGlobalCells  5000000;
    minRefinementCells 10;
    maxLoadUnbalance 0.1;
    nCellsBetweenLevels 4;
    locationInMesh (-1 0 0);
    allowFreeStandingZoneFaces true;
    resolveFeatureAngle 30;
    // useLeakClosure true; // OpenFOAM.com option
    handleSnapProblems true;
    useTopologicalSnapDetection true;

    features
    (
        {
            file "rocket.eMesh";
            level 5;
        }

    );

    refinementSurfaces
    {
        rocket
        {
            level (3 6);
            patchInfo { type wall; }
            
        }

    }

    refinementRegions
    {
        rocket
        {
            mode distance;
            levels $refinementRegionsLevels;
        }

    }
}

snapControls
{
    nSmoothPatch 3;
    nSmoothInternal 1; // OpenFOAM.com option
    tolerance 2.0;
    nSolveIter 30;
    nRelaxIter 4;
    nFeatureSnapIter 4;
    implicitFeatureSnap false;
    explicitFeatureSnap true;
    multiRegionFeatureSnap true;
    nFaceSplitInterval -1; // OpenFOAM.com option
    releasePoints false;  // multi-region related option
    stringFeatures true;
    avoidDiagonal false;
    strictRegionSnap false;
    concaveAngle 45;
    minAreaRatio 0.3;
}

addLayersControls
{
    // Layer sizing
    relativeSizes true;
    expansionRatio 1.1;
    finalLayerThickness $finalLayerThickness;
    minThickness $minThickness;
    nGrow 0;

    // Mesh dependencies
    featureAngle 85;
    mergePatchFacesAngle 45; // OpenFOAM.com option
    layerTerminationAngle 45; // OpenFOAM.com option
    maxFaceThicknessRatio 0.5;
    disableWallEdges false;

    // Mesh displacement iterations
    nSmoothSurfaceNormals 2;
    nSmoothThickness 10;
    nSmoothNormals 3;
    nSmoothDisplacement 12;
    nMedialAxisIter 1000;

    // Medial axis analysis
    minMedianAxisAngle 90;
    maxThicknessToMedialRatio 0.5;
    slipFeatureAngle 30;
    nRelaxIter 15;

    // OpenFOAM.com displacement motion solver
    // meshShrinker displacementMotionSolver;
    // solver displacementLaplacian;
    // displacementLaplacianCoeffs { diffusivity quadratic inverseDistance ("wall.*"); }

    // Mesh shrinking overall settings
    nBufferCellsNoExtrude 0;
    nLayerIter 50;
    nRelaxedIter 20;
    nOuterIter 1000; // OpenFOAM.com option, 1=single pass layer addition
    additionalReporting true;

    layers
    {
        rocket
        {
            nSurfaceLayers 11;
            //Local parameters
            expansionRatio 1.1;
            finalLayerThickness $finalLayerThickness;
            minThickness $minThickness;
        }
    }
}


meshQualityControls
{
    // Maximum non-orthogonality allowed. Reduced for better stability.
    maxNonOrtho 60;

    // Max skewness allowed. Adjusted for internal and boundary mesh quality.
    maxBoundarySkewness 15;
    maxInternalSkewness 3;

    // Max concaveness allowed. Tighter to improve numerical stability.
    maxConcave 70;

    // Minimum projected area v.s. actual area. Ensures sufficient face quality.
    minFlatness 0.6;

    // Minimum cell pyramid volume relative to min bounding box length^3.
    // Adjusted to avoid very small cells while allowing flexibility.
    minVol 1e-12;

    // Minimum quality of tetrahedral cells. Stricter for better stability.
    minTetQuality 1e-12;

    // Minimum face twist. Ensures cells are not overly twisted.
    minTwist 0.03;

    // Minimum normalized cell determinant. Eliminates degenerate cells.
    minDeterminant 0.002;

    // Minimum face weight (0 -> 0.5). Slightly stricter for better interpolation.
    minFaceWeight 0.05;

    // Minimum volume ratio (0 -> 1). Ensures balanced cell sizes.
    minVolRatio 0.02;

    // Advanced settings

    // Number of error distribution iterations. Slightly increased for smoother results.
    nSmoothScale 5;

    // Amount to scale back displacement at error points. Retained for balance.
    errorReduction 0.75;
}


writeFlags      ( scalarLevels layerSets layerFields );

mergeTolerance  1e-06;
