/*--------------------------------*- C++ -*----------------------------------*\
  =========                 |
  \\      /  F ield         | OpenFOAM: The Open Source CFD Toolbox
   \\    /   O peration     | Website:  https://openfoam.org
    \\  /    A nd           | Version:  11
     \\/     M anipulation  |
\*---------------------------------------------------------------------------*/
FoamFile
{
    format      ascii;
    class       featureEdgeMesh;
    location    "constant/triSurface";
    object      RocketV4.eMesh;
}
// * * * * * * * * * * * * * * * * * * * * * * * * * * * * * * * * * * * * * //


// points:

1145
(
(3.089512587 0.1638935059 0.00253516715)
(3.08940196 0.1638935059 0.002540000016)
(3.089622498 0.1638935059 0.002520705806)
(3.08973074 0.1638935059 0.00249672588)
(3.089836359 0.1638935059 0.002463409677)
(3.089938641 0.1638935059 0.002421010984)
(3.090037107 0.1638935059 0.002369852271)
(3.090130329 0.1638935059 0.002310323063)
(3.090218306 0.1638935059 0.00224287645)
(3.090300083 0.1638935059 0.002168025589)
(3.090374947 0.1638935059 0.002086340217)
(3.090442419 0.1638935059 0.001998441992)
(3.090501785 0.1638935059 0.001904999954)
(3.090553045 0.1638935059 0.001806725166)
(3.090595484 0.1638935059 0.001704365597)
(3.090628624 0.1638935059 0.001598700183)
(3.090652704 0.1638935059 0.001490533235)
(3.090667248 0.1638935059 0.001380687812)
(3.090672016 0.1638935059 0.001270000008)
(3.08940196 -0.07974704355 0.1432059407)
(3.089455843 -0.07974803448 0.1432053596)
(3.08956337 -0.07975595444 0.1432007849)
(3.089669466 -0.07977173477 0.1431916803)
(3.089773893 -0.07979525626 0.1431781054)
(3.08987546 -0.07982635498 0.1431601495)
(3.089973688 -0.07986481488 0.1431379467)
(3.090067863 -0.07991033792 0.1431116611)
(3.09015727 -0.07996261865 0.1430814713)
(3.090240955 -0.08002126962 0.1430476159)
(3.090318918 -0.08008586615 0.1430103183)
(3.090390205 -0.08015594631 0.1429698616)
(3.090454102 -0.08023101091 0.1429265141)
(3.090510845 -0.08031050861 0.1428806186)
(3.090559244 -0.0803938657 0.1428324878)
(3.090599537 -0.08048049361 0.1427824795)
(3.090631008 -0.08056975901 0.1427309364)
(3.090653658 -0.08066102117 0.1426782459)
(3.090667486 -0.08075362444 0.1426247805)
(3.090672016 -0.08084689826 0.1425709277)
(3.089455843 -0.07974803448 -0.1432053596)
(3.08940196 -0.07974704355 -0.1432059407)
(3.08956337 -0.07975595444 -0.1432007849)
(3.089669466 -0.07977173477 -0.1431916803)
(3.089773893 -0.07979525626 -0.1431781054)
(3.08987546 -0.07982635498 -0.1431601495)
(3.089973688 -0.07986481488 -0.1431379467)
(3.090067863 -0.07991033792 -0.1431116611)
(3.09015727 -0.07996261865 -0.1430814713)
(3.090240955 -0.08002126962 -0.1430476159)
(3.090318918 -0.08008586615 -0.1430103183)
(3.090390205 -0.08015594631 -0.1429698616)
(3.090454102 -0.08023101091 -0.1429265141)
(3.090510845 -0.08031050861 -0.1428806186)
(3.090559244 -0.0803938657 -0.1428324878)
(3.090599537 -0.08048049361 -0.1427824795)
(3.090631008 -0.08056975901 -0.1427309364)
(3.090653658 -0.08066102117 -0.1426782459)
(3.090667486 -0.08075362444 -0.1426247805)
(3.090672016 -0.08084689826 -0.1425709277)
(3.08940196 0.1638935059 -0.002540000016)
(3.089512587 0.1638935059 -0.00253516715)
(3.089622498 0.1638935059 -0.002520705806)
(3.08973074 0.1638935059 -0.00249672588)
(3.089836359 0.1638935059 -0.002463409677)
(3.089938641 0.1638935059 -0.002421010984)
(3.090037107 0.1638935059 -0.002369852271)
(3.090130329 0.1638935059 -0.002310323063)
(3.090218306 0.1638935059 -0.00224287645)
(3.090300083 0.1638935059 -0.002168025589)
(3.090374947 0.1638935059 -0.002086340217)
(3.090442419 0.1638935059 -0.001998441992)
(3.090501785 0.1638935059 -0.001904999954)
(3.090553045 0.1638935059 -0.001806725166)
(3.090595484 0.1638935059 -0.001704365597)
(3.090628624 0.1638935059 -0.001598700183)
(3.090652704 0.1638935059 -0.001490533235)
(3.090667248 0.1638935059 -0.001380687812)
(3.090672016 0.1638935059 -0.001270000008)
(3.089512587 -0.0841422677 0.1406683475)
(3.08940196 -0.08414645493 0.1406659335)
(3.089622498 -0.08412974328 0.1406755745)
(3.08973074 -0.08410897851 0.14068757)
(3.089836359 -0.08408012241 0.1407042295)
(3.089938641 -0.08404340595 0.1407254338)
(3.090037107 -0.0839991048 0.1407510042)
(3.090130329 -0.08394754678 0.1407807767)
(3.090218306 -0.08388914168 0.1408144981)
(3.090300083 -0.08382431418 0.1408519149)
(3.090374947 -0.08375357091 0.140892759)
(3.090442419 -0.08367744833 0.1409367174)
(3.090501785 -0.08359652758 0.1409834325)
(3.090553045 -0.08351141959 0.1410325766)
(3.090595484 -0.08342277259 0.1410837471)
(3.090628624 -0.08333126456 0.1411365867)
(3.090652704 -0.08323758841 0.141190663)
(3.090667248 -0.08314245939 0.1412455887)
(3.090672016 -0.08304660022 0.1413009316)
(3.08940196 -0.08414645493 -0.1406659335)
(3.089455843 -0.084145464 -0.1406664997)
(3.08956337 -0.08413754404 -0.1406710744)
(3.089669466 -0.08412177116 -0.1406801939)
(3.089773893 -0.08409824222 -0.1406937689)
(3.08987546 -0.0840671435 -0.1407117248)
(3.089973688 -0.08402869105 -0.1407339275)
(3.090067863 -0.08398316056 -0.1407602131)
(3.09015727 -0.08393087983 -0.1407904029)
(3.090240955 -0.08387222886 -0.1408242583)
(3.090318918 -0.08380763233 -0.1408615559)
(3.090390205 -0.08373755217 -0.1409020126)
(3.090454102 -0.08366249502 -0.1409453452)
(3.090510845 -0.08358299732 -0.1409912556)
(3.090559244 -0.08349963278 -0.1410393715)
(3.090599537 -0.08341300488 -0.1410893947)
(3.090631008 -0.08332373947 -0.1411409229)
(3.090653658 -0.08323247731 -0.1411936134)
(3.090667486 -0.08313987404 -0.1412470788)
(3.090672016 -0.08304660022 -0.1413009316)
(3.038599968 -0.0839202255 -0.1407965422)
(3.038468838 -0.08387112617 -0.1408248991)
(3.039654016 -0.08414645493 -0.1406659335)
(3.039654016 -0.07974704355 -0.1432059407)
(3.03872323 -0.07993045449 -0.1431000382)
(3.038774014 -0.07991378009 -0.1431096643)
(3.03885293 -0.07988914847 -0.1431238949)
(3.038928747 -0.07986685634 -0.1431367695)
(3.03896904 -0.07985565811 -0.1431432217)
(3.038870096 -0.08400952071 -0.1407449991)
(3.03881073 -0.08399135619 -0.1407554746)
(3.038955212 -0.08403407782 -0.1407308131)
(3.038742304 -0.08396934718 -0.1407681853)
(3.038645506 -0.08393643051 -0.1407871991)
(3.039595842 -0.0841453746 -0.1406665593)
(3.039536238 -0.0841421932 -0.1406683922)
(3.039503336 -0.08413962275 -0.1406698823)
(3.039469242 -0.08413638175 -0.1406717449)
(3.039393663 -0.08412729949 -0.1406769902)
(3.039329052 -0.08411762118 -0.1406825781)
(3.039307833 -0.08411409706 -0.1406846195)
(3.039209604 -0.08409564942 -0.1406952739)
(3.039176464 -0.08408868313 -0.1406992972)
(3.039096117 -0.08407043666 -0.1407098323)
(3.038984299 -0.08404200524 -0.1407262385)
(3.03860116 -0.0799728632 -0.1430755556)
(3.038442612 -0.08386085927 -0.1408308148)
(3.038276434 -0.08379290998 -0.1408700496)
(3.039065361 -0.07983053476 -0.1431577355)
(3.039164305 -0.07980739325 -0.1431710869)
(3.039184332 -0.07980310917 -0.1431735605)
(3.039288759 -0.07978267968 -0.1431853622)
(3.039319277 -0.07977744192 -0.1431883872)
(3.039379358 -0.07976816595 -0.1431937367)
(3.039458275 -0.07975824922 -0.1431994736)
(3.039496422 -0.07975447923 -0.1432016492)
(3.039527893 -0.07975189388 -0.1432031393)
(3.036524534 -0.08120838553 -0.1423622221)
(3.036583185 -0.08115379512 -0.142393738)
(3.037257671 -0.08064182848 -0.1426893324)
(3.037389278 -0.0805593431 -0.1427369565)
(3.037467718 -0.08051201701 -0.1427642852)
(3.037602901 -0.08043380082 -0.1428094357)
(3.039589643 -0.0797483623 -0.1432051808)
(3.039644718 -0.07974707335 -0.1432059109)
(3.03763032 -0.08347503096 -0.1410535872)
(3.037603855 -0.08346022666 -0.1410621256)
(3.037415743 -0.08335030824 -0.1411255896)
(3.038269997 -0.08379013836 -0.1408716589)
(3.038064003 -0.08369781822 -0.1409249604)
(3.038058758 -0.08369529992 -0.1409264058)
(3.036118746 -0.08172547072 -0.1420636922)
(3.036123037 -0.08171655238 -0.1420688331)
(3.037696123 -0.08038209379 -0.1428392828)
(3.037821293 -0.08031564206 -0.1428776532)
(3.037938595 -0.08025611937 -0.1429120153)
(3.038037062 -0.0802084133 -0.1429395676)
(3.038175821 -0.08014450222 -0.1429764628)
(3.038244486 -0.08011437953 -0.1429938525)
(3.037848711 -0.08359204233 -0.1409860253)
(3.037834883 -0.08358496428 -0.1409901083)
(3.037362099 -0.08331755549 -0.1411444992)
(3.037213087 -0.0832227543 -0.1411992311)
(3.037163734 -0.08319009095 -0.141218096)
(3.036108494 -0.08174816519 -0.1420505792)
(3.036118746 -0.08216805011 -0.1418081671)
(3.036113262 -0.0821564123 -0.1418148875)
(3.03617239 -0.08162655681 -0.1421207935)
(3.036189079 -0.0816000402 -0.1421361119)
(3.036221743 -0.08155153692 -0.1421641111)
(3.036370277 -0.08136691153 -0.1422706991)
(3.036388874 -0.08134643734 -0.1422825307)
(3.036316395 -0.08142886311 -0.1422349364)
(3.036440372 -0.08129176497 -0.1423140913)
(3.036476851 -0.08125484735 -0.1423354)
(3.036626339 -0.08111495525 -0.1424161792)
(3.036709309 -0.08104336262 -0.1424575001)
(3.036762476 -0.08099941909 -0.1424828768)
(3.038405418 -0.08004739881 -0.143032521)
(3.038578987 -0.07998090982 -0.1430709064)
(3.037024736 -0.08309398592 -0.141273573)
(3.036988258 -0.08306773752 -0.1412887275)
(3.036856174 -0.08296872675 -0.1413459033)
(3.03614068 -0.08168173581 -0.1420889348)
(3.036162376 -0.08164314181 -0.1421112269)
(3.036262274 -0.08149648458 -0.1421958953)
(3.036314487 -0.0814312771 -0.1422335505)
(3.036856413 -0.08092465997 -0.1425260454)
(3.036906004 -0.0808866024 -0.1425480098)
(3.037024736 -0.08079946786 -0.1425983161)
(3.037071466 -0.08076646924 -0.1426173747)
(3.037213087 -0.08067075908 -0.1426726282)
(3.036832094 -0.08294995129 -0.1413567364)
(3.03670907 -0.0828499198 -0.1414144933)
(3.036692858 -0.08283619583 -0.1414224058)
(3.036257744 -0.08239114285 -0.1416793615)
(3.036239624 -0.0823668465 -0.1416933835)
(3.036202669 -0.08231420815 -0.1417237818)
(3.036172867 -0.08226764947 -0.1417506635)
(3.036076784 -0.08183862269 -0.1419983655)
(3.036079645 -0.08182814717 -0.1420044154)
(3.036100626 -0.08212632686 -0.1418322474)
(3.036148548 -0.08222641796 -0.1417744607)
(3.036128998 -0.08218958229 -0.1417957395)
(3.036087275 -0.08180361241 -0.1420185715)
(3.036096811 -0.08177705854 -0.1420339048)
(3.036090374 -0.08209885657 -0.1418481171)
(3.036076784 -0.08205487579 -0.1418735087)
(3.036075592 -0.08205030113 -0.1418761462)
(3.036578417 -0.08273534477 -0.1414806396)
(3.036482811 -0.08264457434 -0.141533047)
(3.036403656 -0.08256305754 -0.1415801048)
(3.036337852 -0.08248976618 -0.1416224241)
(3.036282778 -0.08242335171 -0.1416607648)
(3.036062717 -0.0819677636 -0.1419238001)
(3.036062002 -0.08194675297 -0.1419359297)
(3.036067009 -0.08200840652 -0.1419003308)
(3.036063671 -0.08191097528 -0.1419565827)
(3.036069393 -0.08187222481 -0.1419789642)
(3.039654016 -0.07974704355 0.1432059407)
(3.039654016 -0.08414645493 0.1406659335)
(3.038599968 -0.07997327298 0.1430753171)
(3.038468838 -0.08002237231 0.1430469751)
(3.03872323 -0.08396304399 0.1407718211)
(3.038774014 -0.08397971839 0.140762195)
(3.03885293 -0.08400435001 0.1407479793)
(3.038928747 -0.08402664959 0.1407351047)
(3.03896904 -0.08403784037 0.1407286376)
(3.038870096 -0.07988397777 0.1431268752)
(3.03881073 -0.07990214229 0.1431163847)
(3.038955212 -0.07985942811 0.1431410462)
(3.038742304 -0.0799241513 0.143103689)
(3.038645506 -0.07995707542 0.1430846751)
(3.039595842 -0.07974812388 0.1432053149)
(3.039536238 -0.07975130528 0.1432034671)
(3.039503336 -0.07975387573 0.1432019919)
(3.039469242 -0.07975712419 0.1432001144)
(3.039393663 -0.07976619899 0.1431948692)
(3.039329052 -0.0797758773 0.1431892812)
(3.039307833 -0.07977940142 0.1431872547)
(3.039209604 -0.07979785651 0.1431766003)
(3.039176464 -0.07980481535 0.143172577)
(3.039096117 -0.07982306927 0.1431620419)
(3.038984299 -0.07985149324 0.1431456357)
(3.03860116 -0.08392064273 0.1407963037)
(3.038442612 -0.08003263921 0.1430410445)
(3.038276434 -0.0801005885 0.1430018246)
(3.039065361 -0.08406296372 0.1407141387)
(3.039164305 -0.08408610523 0.1407007724)
(3.039184332 -0.08409039676 0.1406982988)
(3.039288759 -0.0841108188 0.140686512)
(3.039319277 -0.08411605656 0.1406834871)
(3.039379358 -0.08412533253 0.1406781226)
(3.039458275 -0.08413524926 0.1406724006)
(3.039496422 -0.0841390267 0.140670225)
(3.039527893 -0.0841416046 0.1406687349)
(3.036524534 -0.08268511295 0.1415096372)
(3.036583185 -0.08273970336 0.1414781213)
(3.037257671 -0.08325167 0.1411825418)
(3.037389278 -0.08333415538 0.1411349177)
(3.037467718 -0.08338148892 0.141107589)
(3.037602901 -0.08345969766 0.1410624385)
(3.039589643 -0.08414513618 0.1406666934)
(3.039644718 -0.08414642513 0.1406659484)
(3.03763032 -0.08041847497 0.142818287)
(3.037603855 -0.08043327183 0.1428097486)
(3.037415743 -0.08054319769 0.1427462846)
(3.038269997 -0.08010336012 0.1430002153)
(3.038064003 -0.08019568026 0.1429469138)
(3.038058758 -0.08019819856 0.1429454684)
(3.036118746 -0.08216803521 0.141808182)
(3.036123037 -0.0821769461 0.1418030262)
(3.037696123 -0.08351140469 0.1410325766)
(3.037821293 -0.08357785642 0.140994221)
(3.037938595 -0.08363737911 0.140959844)
(3.038037062 -0.08368508518 0.1409323066)
(3.038175821 -0.08374900371 0.1408954114)
(3.038244486 -0.08377911896 0.1408780068)
(3.037848711 -0.08030145615 0.1428858489)
(3.037834883 -0.0803085342 0.1428817511)
(3.037362099 -0.08057594299 0.142727375)
(3.037213087 -0.08067074418 0.1426726282)
(3.037163734 -0.08070340753 0.1426537782)
(3.036108494 -0.08214533329 0.1418212801)
(3.036118746 -0.08172544837 0.1420637071)
(3.036113262 -0.08173708618 0.1420569867)
(3.03617239 -0.08226694167 0.1417510659)
(3.036189079 -0.08229345828 0.1417357624)
(3.036221743 -0.08234196156 0.1417077631)
(3.036370277 -0.08252658695 0.1416011602)
(3.036388874 -0.08254706115 0.1415893435)
(3.036316395 -0.08246463537 0.1416369379)
(3.036440372 -0.08260174096 0.1415577829)
(3.036476851 -0.08263865113 0.1415364593)
(3.036626339 -0.08277855068 0.141455695)
(3.036709309 -0.08285013586 0.1414143592)
(3.036762476 -0.08289408684 0.1413889974)
(3.038405418 -0.08384609967 0.1408393383)
(3.038578987 -0.08391258866 0.1408009529)
(3.037024736 -0.08079951257 0.1425982863)
(3.036988258 -0.08082576096 0.1425831318)
(3.036856174 -0.08092477173 0.1425259709)
(3.03614068 -0.08221176267 0.1417829245)
(3.036162376 -0.08225035667 0.1417606473)
(3.036262274 -0.0823970139 0.1416759789)
(3.036314487 -0.08246222883 0.1416383237)
(3.036856413 -0.08296883851 0.1413458288)
(3.036906004 -0.08300689608 0.1413238645)
(3.037024736 -0.08309403062 0.1412735581)
(3.037071466 -0.08312702924 0.1412544996)
(3.037213087 -0.0832227394 0.141199246)
(3.036832094 -0.08094354719 0.1425151378)
(3.03670907 -0.08104357868 0.1424573809)
(3.036692858 -0.08105730265 0.1424494535)
(3.036257744 -0.08150235564 0.1421925128)
(3.036239624 -0.08152665198 0.1421784759)
(3.036202669 -0.08157929033 0.1421480924)
(3.036172867 -0.08162584901 0.1421212107)
(3.036076784 -0.08205487579 0.1418735087)
(3.036079645 -0.08206535131 0.1418674588)
(3.036100626 -0.08176717162 0.1420396119)
(3.036148548 -0.08166708052 0.1420973986)
(3.036128998 -0.08170391619 0.1420761347)
(3.036087275 -0.08208988607 0.1418532878)
(3.036096811 -0.08211643994 0.1418379694)
(3.036090374 -0.08179464191 0.1420237571)
(3.036076784 -0.08183862269 0.1419983655)
(3.036075592 -0.08184319735 0.1419957131)
(3.036578417 -0.08115815371 0.1423912346)
(3.036482811 -0.08124892414 0.1423388273)
(3.036403656 -0.08133044094 0.1422917545)
(3.036337852 -0.0814037323 0.1422494501)
(3.036282778 -0.08147014678 0.1422110945)
(3.036062717 -0.08192573488 0.1419480592)
(3.036062002 -0.08194675297 0.1419359297)
(3.036067009 -0.08188509196 0.1419715285)
(3.036063671 -0.0819825232 0.1419152766)
(3.036069393 -0.08202128112 0.14189291)
(3.039654016 0.1638935059 -0.002540000016)
(3.038774014 0.1638935059 0.002347467933)
(3.03885293 0.1638935059 0.002375915647)
(3.038928747 0.1638935059 0.002401656937)
(3.038578749 0.1638935059 -0.002269861288)
(3.038468838 0.1638935059 -0.002222081879)
(3.039536238 0.1638935059 -0.00253507751)
(3.039496422 0.1638935059 -0.002531403676)
(3.03896904 0.1638935059 0.002414586022)
(3.039065361 0.1638935059 0.002443597419)
(3.039164305 0.1638935059 0.002470316598)
(3.039184332 0.1638935059 0.002475266811)
(3.03885293 0.1638935059 -0.002375969198)
(3.03881073 0.1638935059 -0.00236090715)
(3.038955212 0.1638935059 -0.002410234883)
(3.03872323 0.1638935059 -0.002328190953)
(3.038645506 0.1638935059 -0.002297481056)
(3.038419008 0.1638935059 -0.002199528506)
(3.03860116 0.1638935059 0.002279252047)
(3.03872323 0.1638935059 0.002328219591)
(3.039654016 0.1638935059 0.002540000016)
(3.039595842 0.1638935059 -0.002538754605)
(3.039469242 0.1638935059 -0.002528366167)
(3.039393663 0.1638935059 -0.002517880406)
(3.039319515 0.1638935059 -0.002504901495)
(3.039307833 0.1638935059 -0.002502636518)
(3.039209604 0.1638935059 -0.002481331816)
(3.039164305 0.1638935059 -0.002470253268)
(3.039096117 0.1638935059 -0.002452219371)
(3.038969278 0.1638935059 -0.002414671937)
(3.039288759 0.1638935059 0.002498855349)
(3.039319277 0.1638935059 0.002504902426)
(3.039379358 0.1638935059 0.002515609143)
(3.039458275 0.1638935059 0.002527065575)
(3.039496422 0.1638935059 0.002531419042)
(3.039527893 0.1638935059 0.002534397645)
(3.038276434 0.1638935059 -0.002131765475)
(3.038244724 0.1638935059 -0.002115938114)
(3.038058758 0.1638935059 -0.002019055886)
(3.039589643 0.1638935059 0.0025384787)
(3.039644718 0.1638935059 0.002539966488)
(3.0380373 0.1638935059 -0.002007342177)
(3.037834883 0.1638935059 -0.001891647116)
(3.037821054 0.1638935059 -0.001883407589)
(3.036524534 0.1638935059 0.0008525856538)
(3.036583185 0.1638935059 0.0009156218148)
(3.037389278 0.1638935059 0.00160203909)
(3.037467718 0.1638935059 0.001656689798)
(3.037602901 0.1638935059 0.00174700364)
(3.037603855 0.1638935059 -0.001747615985)
(3.03738904 0.1638935059 -0.001601915224)
(3.037362099 0.1638935059 -0.001582873752)
(3.037257671 0.1638935059 0.001506793313)
(3.037213087 0.1638935059 -0.001473402022)
(3.037163734 0.1638935059 -0.001435684273)
(3.037024736 0.1638935059 -0.001324714976)
(3.036988258 0.1638935059 -0.001294402988)
(3.036856174 0.1638935059 -0.00118007604)
(3.036118746 0.1638935059 0.000255514984)
(3.036123037 0.1638935059 0.0002658101148)
(3.037696123 0.1638935059 0.001806707121)
(3.037821293 0.1638935059 0.001883437741)
(3.037938595 0.1638935059 0.001952168765)
(3.038037062 0.1638935059 0.00200725696)
(3.038175821 0.1638935059 0.002081059385)
(3.038244486 0.1638935059 0.002115840791)
(3.036832094 0.1638935059 -0.001158396131)
(3.03670907 0.1638935059 -0.001042891759)
(3.036692858 0.1638935059 -0.001027046121)
(3.036108494 0.1638935059 0.0002293032157)
(3.036118746 0.1638935059 -0.000255539635)
(3.036113262 0.1638935059 -0.0002421013487)
(3.03617239 0.1638935059 0.0003697270295)
(3.036189079 0.1638935059 0.0004003434151)
(3.036221743 0.1638935059 0.0004563496332)
(3.036370277 0.1638935059 0.0006695363554)
(3.036388874 0.1638935059 0.0006931825774)
(3.036316395 0.1638935059 0.0005980057758)
(3.036440372 0.1638935059 0.0007563153631)
(3.036476851 0.1638935059 0.0007989398437)
(3.036626339 0.1638935059 0.0009604779189)
(3.036709309 0.1638935059 0.001043138793)
(3.036762476 0.1638935059 0.001093886327)
(3.038405418 0.1638935059 0.002193179447)
(3.038578987 0.1638935059 0.002269958612)
(3.03614068 0.1638935059 0.0003060115268)
(3.036162376 0.1638935059 0.0003505785135)
(3.036262274 0.1638935059 0.0005199209554)
(3.036314487 0.1638935059 0.0005952211213)
(3.036856413 0.1638935059 0.001180209452)
(3.036906004 0.1638935059 0.001224152395)
(3.037024736 0.1638935059 0.001324763289)
(3.037071466 0.1638935059 0.001362866722)
(3.037213087 0.1638935059 0.001473383978)
(3.036257744 0.1638935059 -0.0005131429061)
(3.036239624 0.1638935059 -0.0004850886471)
(3.036202669 0.1638935059 -0.0004243019794)
(3.036172867 0.1638935059 -0.0003705455456)
(3.036076784 0.1638935059 0.0001248550107)
(3.036079645 0.1638935059 0.0001369483361)
(3.036100626 0.1638935059 -0.0002073614596)
(3.036578417 0.1638935059 -0.0009105924401)
(3.036482811 0.1638935059 -0.0008057819796)
(3.036403656 0.1638935059 -0.0007116544293)
(3.036148548 0.1638935059 -0.000322936161)
(3.036128998 0.1638935059 -0.0002804022806)
(3.036087275 0.1638935059 0.0001652834326)
(3.036096811 0.1638935059 0.0001959441433)
(3.036337852 0.1638935059 -0.0006270235172)
(3.036282778 0.1638935059 -0.0005503325956)
(3.036090374 0.1638935059 -0.0001756407291)
(3.036076784 0.1638935059 -0.0001248548797)
(3.036075592 0.1638935059 -0.0001195682489)
(3.036062717 0.1638935059 -2.42633123e-05)
(3.036062002 0.1638935059 0)
(3.036067009 0.1638935059 -7.11931425e-05)
(3.036063671 0.1638935059 4.131047535e-05)
(3.036069393 0.1638935059 8.605712355e-05)
(3.090672016 0.04993306473 0.006983178202)
(3.090672016 0.04996543378 0.006747662555)
(3.090672016 0.04988622293 0.007310296874)
(3.090672016 0.04983595014 0.00764550874)
(3.090672016 0.04978254065 0.00798586756)
(3.090672016 0.04972624779 0.008329205215)
(3.090672016 0.04966722429 0.008674236946)
(3.090672016 0.04965302348 0.008755167015)
(3.090672016 0.04922387004 0.01091266889)
(3.090672016 0.04925223067 0.01078393962)
(3.090672016 -0.01724431291 0.04737836123)
(3.090672016 -0.01528694946 0.04804565385)
(3.090672016 -0.01516128611 0.04808545485)
(3.090672016 -0.01322459523 0.04865373299)
(3.090672016 -0.01304939762 0.04870101437)
(3.090672016 -0.01113818958 0.04917332903)
(3.090672016 -0.01091266889 0.04922387004)
(3.090672016 -0.009031528607 0.04960349947)
(3.090672016 -0.008755167015 0.04965302348)
(3.090672016 -0.006908442359 0.04994345829)
(3.090672016 -0.006581000052 0.04998765886)
(3.090672016 -0.004772792105 0.0501925908)
(3.090672016 -0.004394305404 0.05022713915)
(3.090672016 -0.002628462389 0.0503504388)
(3.090672016 -0.00219924585 0.05037101358)
(3.090672016 -0.0004793523403 0.05041672289)
(3.090672016 -4.362672043e-19 0.05041899905)
(3.090672016 0.001670629485 0.05039131269)
(3.090672016 0.00219924585 0.05037101358)
(3.090672016 0.003817572957 0.05027426407)
(3.090672016 0.004394305404 0.05022713915)
(3.090672016 0.005957574118 0.05006578565)
(3.090672016 0.006581000052 0.04998765886)
(3.090672016 0.008086740039 0.04976625741)
(3.090672016 0.008755167015 0.04965302348)
(3.090672016 0.01020119991 0.04937621951)
(3.090672016 0.01091266889 0.04922387004)
(3.090672016 0.01229710784 0.04889638722)
(3.090672016 0.01304939762 0.04870101437)
(3.090672016 0.01437065098 0.04832763225)
(3.090672016 0.01516128611 0.04808545485)
(3.090672016 0.01641806029 0.0476709865)
(3.090672016 0.01724431291 0.04737836123)
(3.090672016 0.01843561046 0.0469276458)
(3.090672016 0.01929451525 0.04658108205)
(3.090672016 0.02041963488 0.0460989587)
(3.090672016 0.02130798995 0.04569513351)
(3.090672016 0.02236652188 0.04518643767)
(3.090672016 0.0232809037 0.04472219944)
(3.090672016 0.0242727343 0.04419174045)
(3.090672016 0.02520949952 0.04366413504)
(3.090672016 0.02613480389 0.04311667383)
(3.090672016 0.02709010802 0.04252295196)
(3.090672016 0.0279493425 0.04196319729)
(3.090672016 0.02891915105 0.04130082577)
(3.090672016 0.02971305326 0.04073340073)
(3.090672016 0.03069314174 0.04000008106)
(3.090672016 0.03142272681 0.0394295305)
(3.090672016 0.03240870684 0.03862319514)
(3.090672016 0.03307525441 0.03805394843)
(3.090672016 0.034062583 0.03717278689)
(3.090672016 0.03466762975 0.03660916537)
(3.090672016 0.03565161675 0.03565161675)
(3.090672016 0.03619695827 0.0350978002)
(3.090672016 0.03717278689 0.034062583)
(3.090672016 0.03766046092 0.03352260962)
(3.090672016 0.03862319514 0.03240870684)
(3.090672016 0.03905547038 0.03188645095)
(3.090672016 0.04000008106 0.03069314174)
(3.090672016 0.04037945345 0.03019230254)
(3.090672016 0.04130082577 0.02891915105)
(3.090672016 0.0416300036 0.02844324708)
(3.090672016 0.04252295196 0.02709010802)
(3.090672016 0.04280484468 0.0266424641)
(3.090672016 0.04366413504 0.02520949952)
(3.090672016 0.04390183836 0.02479323)
(3.090672016 0.04472219944 0.0232809037)
(3.090672016 0.04491899163 0.02289890498)
(3.090672016 0.04569513351 0.02130798995)
(3.090672016 0.045854453 0.02096293494)
(3.090672016 0.04658108205 0.01929451525)
(3.090672016 0.04670652375 0.01898884214)
(3.090672016 0.04737836123 0.01724431291)
(3.090672016 0.04747365415 0.01698021591)
(3.090672016 0.04808545485 0.01516128611)
(3.090672016 0.04815444723 0.01494070888)
(3.090672016 0.04870101437 0.01304939762)
(3.090672016 0.04874766618 0.01287403051)
(3.090672016 -0.01732150279 0.04735019803)
(3.090672016 -0.01913907006 0.04664516822)
(3.090672016 -0.01891892217 0.04673489183)
(3.090672016 -0.01861220784 0.04685788229)
(3.090672016 -0.01829676889 0.04698195308)
(3.090672016 -0.01797530614 0.04710587859)
(3.090672016 -0.01764982194 0.04722879827)
(3.090672016 -0.01891892217 -0.04673489183)
(3.090672016 -0.01913907006 -0.04664516822)
(3.090672016 -0.01861220784 -0.04685788229)
(3.090672016 -0.01829676889 -0.04698195308)
(3.090672016 -0.01797530614 -0.04710587859)
(3.090672016 -0.01764982194 -0.04722879827)
(3.090672016 -0.01732150279 -0.04735019803)
(3.090672016 -0.01724431291 -0.04737836123)
(3.090672016 -0.01516128611 -0.04808545485)
(3.090672016 -0.01528694946 -0.04804565385)
(3.090672016 0.04965302348 -0.008755167015)
(3.090672016 0.04925223067 -0.01078393962)
(3.090672016 0.04922387004 -0.01091266889)
(3.090672016 0.04874766618 -0.01287403051)
(3.090672016 0.04870101437 -0.01304939762)
(3.090672016 0.04815444723 -0.01494070888)
(3.090672016 0.04808545485 -0.01516128611)
(3.090672016 0.04747365415 -0.01698021591)
(3.090672016 0.04737836123 -0.01724431291)
(3.090672016 0.04670652375 -0.01898884214)
(3.090672016 0.04658108205 -0.01929451525)
(3.090672016 0.045854453 -0.02096293494)
(3.090672016 0.04569513351 -0.02130798995)
(3.090672016 0.04491899163 -0.02289890498)
(3.090672016 0.04472219944 -0.0232809037)
(3.090672016 0.04390183836 -0.02479323)
(3.090672016 0.04366413504 -0.02520949952)
(3.090672016 0.04280484468 -0.0266424641)
(3.090672016 0.04252295196 -0.02709010802)
(3.090672016 0.0416300036 -0.02844324708)
(3.090672016 0.04130082577 -0.02891915105)
(3.090672016 0.04037945345 -0.03019230254)
(3.090672016 0.04000008106 -0.03069314174)
(3.090672016 0.03905547038 -0.03188645095)
(3.090672016 0.03862319514 -0.03240870684)
(3.090672016 0.03766046092 -0.03352260962)
(3.090672016 0.03717278689 -0.034062583)
(3.090672016 0.03619695827 -0.0350978002)
(3.090672016 0.03565161675 -0.03565161675)
(3.090672016 0.03466762975 -0.03660916537)
(3.090672016 0.034062583 -0.03717278689)
(3.090672016 0.03307525441 -0.03805394843)
(3.090672016 0.03240870684 -0.03862319514)
(3.090672016 0.03142272681 -0.0394295305)
(3.090672016 0.03069314174 -0.04000008106)
(3.090672016 0.02971305326 -0.04073340073)
(3.090672016 0.02891915105 -0.04130082577)
(3.090672016 0.0279493425 -0.04196319729)
(3.090672016 0.02709010802 -0.04252295196)
(3.090672016 0.02613480389 -0.04311667383)
(3.090672016 0.02520949952 -0.04366413504)
(3.090672016 0.0242727343 -0.04419174045)
(3.090672016 0.0232809037 -0.04472219944)
(3.090672016 0.02236652188 -0.04518643767)
(3.090672016 0.02130798995 -0.04569513351)
(3.090672016 0.02041963488 -0.0460989587)
(3.090672016 0.01929451525 -0.04658108205)
(3.090672016 0.01843561046 -0.0469276458)
(3.090672016 0.01724431291 -0.04737836123)
(3.090672016 0.01641806029 -0.0476709865)
(3.090672016 0.01516128611 -0.04808545485)
(3.090672016 0.01437065098 -0.04832763225)
(3.090672016 0.01304939762 -0.04870101437)
(3.090672016 0.01229710784 -0.04889638722)
(3.090672016 0.01091266889 -0.04922387004)
(3.090672016 0.01020119991 -0.04937621951)
(3.090672016 0.008755167015 -0.04965302348)
(3.090672016 0.008086740039 -0.04976625741)
(3.090672016 0.006581000052 -0.04998765886)
(3.090672016 0.005957574118 -0.05006578565)
(3.090672016 0.004394305404 -0.05022713915)
(3.090672016 0.003817572957 -0.05027426407)
(3.090672016 0.00219924585 -0.05037101358)
(3.090672016 0.001670629485 -0.05039131269)
(3.090672016 6.099840768e-18 -0.05041899905)
(3.090672016 -0.0004793523403 -0.05041672289)
(3.090672016 -0.00219924585 -0.05037101358)
(3.090672016 -0.002628462389 -0.0503504388)
(3.090672016 -0.004394305404 -0.05022713915)
(3.090672016 -0.004772792105 -0.0501925908)
(3.090672016 -0.006581000052 -0.04998765886)
(3.090672016 -0.006908442359 -0.04994345829)
(3.090672016 -0.008755167015 -0.04965302348)
(3.090672016 -0.009031528607 -0.04960349947)
(3.090672016 -0.01091266889 -0.04922387004)
(3.090672016 -0.01113818958 -0.04917332903)
(3.090672016 -0.01304939762 -0.04870101437)
(3.090672016 -0.01322459523 -0.04865373299)
(3.090672016 0.04966722429 -0.008674236946)
(3.090672016 0.04996543378 -0.006747662555)
(3.090672016 0.04993306473 -0.006983178202)
(3.090672016 0.04988622293 -0.007310296874)
(3.090672016 0.04983595014 -0.00764550874)
(3.090672016 0.04978254065 -0.00798586756)
(3.090672016 0.04972624779 -0.008329205215)
(3.090672016 -0.0310141407 0.03975171223)
(3.090672016 -0.03082636371 0.03989750519)
(3.090672016 -0.03127401322 0.03954758868)
(3.090672016 -0.03153917938 0.03933644295)
(3.090672016 -0.03180723637 0.03912001103)
(3.090672016 -0.03207642958 0.03889959306)
(3.090672016 -0.03234571964 0.03867596015)
(3.090672016 -0.03240870684 0.03862319514)
(3.090672016 -0.034062583 0.03717278689)
(3.090672016 -0.03396528214 0.0372617133)
(3.090672016 -0.03240870684 -0.03862319514)
(3.090672016 -0.03396528214 -0.0372617133)
(3.090672016 -0.034062583 -0.03717278689)
(3.090672016 -0.03552307189 -0.03577969968)
(3.090672016 -0.03565161675 -0.03565161675)
(3.090672016 -0.03701625764 -0.03423262015)
(3.090672016 -0.03717278689 -0.034062583)
(3.090672016 -0.03844212368 -0.03262328357)
(3.090672016 -0.03862319514 -0.03240870684)
(3.090672016 -0.03979808092 -0.03095461614)
(3.090672016 -0.04000008106 -0.03069314174)
(3.090672016 -0.0410816595 -0.029229654)
(3.090672016 -0.04130082577 -0.02891915105)
(3.090672016 -0.04229052737 -0.02745153569)
(3.090672016 -0.04252295196 -0.02709010802)
(3.090672016 -0.04342248663 -0.02562349103)
(3.090672016 -0.04366413504 -0.02520949952)
(3.090672016 -0.04447547346 -0.02374885045)