/*--------------------------------*- C++ -*----------------------------------*\
| =========                 |                                                 |
| \\      /  F ield         | OpenFOAM: The Open Source CFD Toolbox           |
|  \\    /   O peration     | Version:  2412                                  |
|   \\  /    A nd           | Website:  www.openfoam.com                      |
|    \\/     M anipulation  |                                                 |
\*---------------------------------------------------------------------------*/
FoamFile
{
    version     2.0;
    format      ascii;
    arch        "LSB;label=32;scalar=64";
    class       featureEdgeMesh;
    location    "constant/triSurface";
    object      rocketPractice.eMesh;
}
// * * * * * * * * * * * * * * * * * * * * * * * * * * * * * * * * * * * * * //


// points:

13781
(
(2.59265995 -0.0006231790176 0.08880479634)
(2.590470076 -0.0005624769838 0.08674640208)
(2.585299969 -0.0007372630062 0.0818388015)
(2.585200071 -0.000809738005 0.08173429966)
(2.584899902 -0.001055000001 0.08142930269)
(2.584889889 -0.001046349993 0.08142250031)
(2.582950115 -0.003242800012 0.07948639989)
(2.580940008 -0.007602530066 0.07746999711)
(2.581010103 -0.007374139968 0.07754290104)
(2.581239939 -0.006708719768 0.07777199894)
(2.581399918 -0.006281340029 0.0779331997)
(2.581540108 -0.005947200116 0.07806970179)
(2.581609964 -0.005756190047 0.07814759761)
(2.581769943 -0.005393039901 0.07830709964)
(2.581919909 -0.005075609777 0.07845459878)
(2.582010031 -0.004885669798 0.07854670286)
(2.58220005 -0.004515159875 0.07873529941)
(2.582449913 -0.004053339828 0.07898789644)
(2.582590103 -0.003811579896 0.07912869751)
(2.582629919 -0.00374532002 0.07916840166)
(2.582720041 -0.003597690025 0.0792587027)
(2.582829952 -0.003462139983 0.07935310155)
(2.582870007 -0.00336182001 0.0794083029)
(2.583110094 -0.003011370078 0.07964380085)
(2.583189964 -0.002895150101 0.07972569764)
(2.583460093 -0.002530330094 0.07999680191)
(2.583379984 -0.002634109929 0.07991749793)
(2.583659887 -0.002279130043 0.08019720018)
(2.583590031 -0.002395180054 0.0801159963)
(2.58355999 -0.002403120045 0.08009680361)
(2.583770037 -0.002146450104 0.08030819893)
(2.583760023 -0.002158350078 0.08029810339)
(2.584069967 -0.001811039983 0.08060690016)
(2.58397007 -0.001919939998 0.08050680161)
(2.584110022 -0.001766609959 0.08064860106)
(2.584470034 -0.001411680016 0.08100420237)
(2.584500074 -0.001380819944 0.08103720099)
(2.584559917 -0.00132597005 0.08109690249)
(2.584800005 -0.001117330045 0.08133599907)
(2.585459948 -0.0007013489958 0.08197730035)
(2.585419893 -0.0006770039909 0.08195260167)
(2.585880041 -0.0005674940185 0.08237010241)
(2.585789919 -0.000520556001 0.08230719715)
(2.586430073 -0.0004070370051 0.08291819692)
(2.586380005 -0.0003898100113 0.08287650347)
(2.586319923 -0.0003666369885 0.08282610029)
(2.586570024 -0.0003705940035 0.0830624029)
(2.586519957 -0.0003559959878 0.08301970363)
(2.586489916 -0.0003462079912 0.0829930976)
(2.585649967 -0.000681563979 0.08213789761)
(2.585939884 -0.0005953179789 0.08241190016)
(2.586639881 -0.0003898979921 0.08312460035)
(2.585839987 -0.0006584069924 0.08230289817)
(2.586649895 -0.000469030987 0.08309999853)
(2.585400105 -0.0009257579804 0.08184950054)
(2.586400032 -0.0005699779722 0.08282549679)
(2.58694005 -0.0003820229904 0.08341830224)
(2.585279942 -0.000993854017 0.08173140138)
(2.585890055 -0.0007907070103 0.08229140192)
(2.58671999 -0.0004856009909 0.08315770328)
(2.585799932 -0.0008672900149 0.08218649775)
(2.585570097 -0.001006660052 0.08194539696)
(2.585340023 -0.001156360027 0.0817084983)
(2.584510088 -0.00158606004 0.08096379787)
(2.585259914 -0.001251150039 0.08160810173)
(2.58652997 -0.0006983010098 0.08287700266)
(2.584429979 -0.001699269982 0.0808679983)
(2.585760117 -0.001085640048 0.08205319941)
(2.584199905 -0.001892099972 0.08065129817)
(2.585400105 -0.001314450055 0.08167749643)
(2.585259914 -0.001523860032 0.08147989959)
(2.585690022 -0.001304300036 0.08189070225)
(2.587419987 -0.0004507949925 0.08384700119)
(2.583839893 -0.002367249923 0.08025539666)
(2.584300041 -0.00211551995 0.08061379939)
(2.585050106 -0.001713069971 0.08124949783)
(2.584229946 -0.002244259929 0.08051799983)
(2.584980011 -0.001827980042 0.08114960045)
(2.587610006 -0.000398114993 0.08406650275)
(2.583869934 -0.002562250011 0.08018819988)
(2.585069895 -0.001868390013 0.08118580282)
(2.58536005 -0.001704190043 0.08145420253)
(2.586859941 -0.0008723339997 0.08305809647)
(2.585449934 -0.001739979954 0.08149410039)
(2.586009979 -0.001415680046 0.08205819875)
(2.584969997 -0.002123469952 0.0809950009)
(2.586499929 -0.001205840032 0.08255080134)
(2.585069895 -0.002165969927 0.08103170246)
(2.586189985 -0.001470649964 0.08215270191)
(2.587709904 -0.0005624910118 0.08404500037)
(2.584739923 -0.00249184994 0.08067610115)
(2.585419893 -0.002154229907 0.0812446028)
(2.586110115 -0.001698059961 0.08195529878)
(2.586210012 -0.00172722002 0.08200419694)
(2.587949991 -0.0005875549978 0.08425159752)
(2.586019993 -0.002070150105 0.0816598013)
(2.585730076 -0.002405659994 0.08127409965)
(2.586889982 -0.001646919991 0.08252619952)
(2.586999893 -0.001669939957 0.08258529752)
(2.586740017 -0.001990430057 0.08216819912)
(2.587589979 -0.001315379981 0.0833081007)
(2.588589907 -0.0005563099985 0.08489750326)
(2.58769989 -0.001331720036 0.08337739855)
(2.588040113 -0.001061010058 0.08389790356)
(2.588579893 -0.000641709019 0.08479840308)
(2.587579966 -0.001538429991 0.08310630172)
(2.588469982 -0.0009084439953 0.08441569656)
(2.588779926 -0.0006559999892 0.08497220278)
(2.588259935 -0.00118885003 0.08395220339)
(2.588690042 -0.0009273460018 0.08458600193)
(2.588989973 -0.0006697319914 0.08515419811)
(2.58829999 -0.001520280028 0.08364800364)
(2.589210033 -0.000682879996 0.08534479886)
(2.585690022 -0.00434619002 0.08004680276)
(2.585949898 -0.004068190232 0.08032140136)
(2.587310076 -0.00264864997 0.08199229836)
(2.589230061 -0.0007753680111 0.08524630219)
(2.589400053 -0.0005176989944 0.08573950082)
(2.587850094 -0.002193049993 0.08270099759)
(2.588180065 -0.001859129989 0.08322829753)
(2.588500023 -0.001541699981 0.08377250284)
(2.592420101 -0.001333400025 0.08691679686)
(2.592979908 -0.0007050600252 0.08888159692)
(2.582870007 0.003362480085 0.07940780371)
(2.580940008 0.00931293983 0.07704129815)
(2.585829973 0.000425523991 0.08236789703)
(2.585730076 0.0004825170035 0.08226290345)
(2.585419893 0.0006770039909 0.08195260167)
(2.585299969 0.0007372829714 0.0818388015)
(2.584969997 0.000981339952 0.08150430024)
(2.584990025 0.0009643589729 0.08152610064)
(2.584800005 0.001117230044 0.08133610338)
(2.584290028 0.001586709986 0.08082369715)
(2.583869934 0.002031750046 0.08040720224)
(2.58397007 0.001919929986 0.08050680161)
(2.582950115 0.003242850071 0.07948639989)
(2.582449913 0.004053339828 0.07898789644)
(2.581459999 0.006121479906 0.07799649984)
(2.58137989 0.006322029978 0.07791739702)
(2.580940008 0.007602530066 0.07746999711)
(2.585999966 0.0003468049981 0.08253130317)
(2.585779905 0.0004507350095 0.08231630176)
(2.58562994 0.0005454400089 0.08216089755)
(2.586080074 0.0004513459862 0.08258210123)
(2.585969925 0.0005026999861 0.08246870339)
(2.586750031 0.0002803659881 0.08326949924)
(2.586129904 0.0004740220029 0.08262079954)
(2.585880041 0.0005674940185 0.08237010241)
(2.585649967 0.000681563979 0.08213789761)
(2.585939884 0.0005953179789 0.08241190016)
(2.585570097 0.0007615339709 0.0820446983)
(2.5848701 0.001058449969 0.08140750229)
(2.586689949 0.0003306989965 0.08319310099)
(2.585839987 0.0006584069924 0.08230289817)
(2.58468008 0.001373389969 0.08115780354)
(2.586649895 0.0008243679767 0.08290970325)
(2.587169886 0.0005713260034 0.08352830261)
(2.587419987 0.0004507949925 0.08384700119)
(2.583770037 0.002146469895 0.08030819893)
(2.586819887 0.0005074749934 0.08324030042)
(2.586590052 0.000713839021 0.08292079717)
(2.5864501 0.000871672004 0.08271290362)
(2.586319923 0.001045980025 0.08250830323)
(2.583590031 0.002395180054 0.0801159963)
(2.583519936 0.002455830108 0.0800549984)
(2.583630085 0.002317060018 0.08016619831)
(2.586199999 0.001235099975 0.08230300248)
(2.586600065 0.001014290028 0.08275099844)
(2.586859941 0.0008723339997 0.08305809647)
(2.587169886 0.0006555920118 0.08347350359)
(2.583379984 0.002634109929 0.07991749793)
(2.583410025 0.002598139923 0.07994479686)
(2.587559938 0.0005451909965 0.08391600102)
(2.583189964 0.002893330064 0.07972700149)
(2.586499929 0.001205840032 0.08255080134)
(2.586889982 0.000978228054 0.08301229775)
(2.587270021 0.000760830997 0.08348879963)
(2.582999945 0.003167619929 0.07953669876)
(2.586189985 0.001470649964 0.08215270191)
(2.587100029 0.0009203330264 0.08322750032)
(2.587470055 0.0007020080229 0.08371320367)
(2.587709904 0.0005624910118 0.08404500037)
(2.582720041 0.003597690025 0.0792587027)
(2.587059975 0.001012420049 0.08312699944)
(2.582629919 0.003745340044 0.07916840166)
(2.586110115 0.001698059961 0.08195529878)
(2.587270021 0.0009509070078 0.08334829658)
(2.582370043 0.00420251023 0.0789040029)
(2.585939884 0.001909879968 0.08171120286)
(2.586210012 0.00172722002 0.08200419694)
(2.586990118 0.001208310015 0.08292649686)
(2.587949991 0.0005875549978 0.08425159752)
(2.586179972 0.001848289976 0.08190540224)
(2.586960077 0.001312099979 0.08282650262)
(2.58791995 0.0006698630168 0.08415120095)
(2.582149982 0.004607489798 0.0786871016)
(2.586019993 0.002070150105 0.0816598013)
(2.587179899 0.001245670021 0.08304739743)
(2.587660074 0.0009135780274 0.08370979875)
(2.586910009 0.001531410031 0.08262640238)
(2.587869883 0.0008453769842 0.08395069838)
(2.581700087 0.005580029916 0.07822710276)
(2.586889982 0.001646919991 0.08252619952)
(2.587850094 0.0009385779849 0.08385050297)
(2.585839987 0.002586659975 0.08121989667)
(2.585969925 0.002479470102 0.08136379719)
(2.587719917 0.001121649984 0.08357860148)
(2.588059902 0.0008674159762 0.08409830183)
(2.588390112 0.000626877998 0.08463259786)
(2.587589979 0.001315379981 0.0833081007)
(2.586349964 0.002440609969 0.0816078037)
(2.588040113 0.001061010058 0.08389790356)
(2.588259935 0.0008884519921 0.0842531994)
(2.588579893 0.000641709019 0.08479840308)
(2.587579966 0.001538429991 0.08310630172)
(2.588469982 0.0008136910037 0.08451549709)
(2.588979959 0.0004963679821 0.08535090089)
(2.586859941 0.002283019945 0.08202280104)
(2.588469982 0.0009084439953 0.08441569656)
(2.588779926 0.0006559999892 0.08497220278)
(2.587470055 0.00187986996 0.08273489773)
(2.588690042 0.0009273460018 0.08458600193)
(2.588989973 0.0006697319914 0.08515419811)
(2.587379932 0.002249750076 0.08236359805)
(2.587860107 0.001940030023 0.08293910325)
(2.58829999 0.001520280028 0.08364800364)
(2.586829901 0.003142579924 0.08135420084)
(2.587310076 0.00264864997 0.08199229836)
(2.589230061 0.0007753680111 0.08524630219)
(2.587850094 0.002193049993 0.08270099759)
(2.588180065 0.001859129989 0.08322829753)
(2.58920002 0.0008676089928 0.08510369807)
(2.589940071 0.0005419999943 0.08624900132)
(2.589129925 0.001373330015 0.08442980051)
(2.589730024 0.0008967319736 0.08553569764)
(2.589960098 0.0008120060083 0.08585780114)
(2.58991003 0.001204409986 0.08525069803)
(2.581310034 0.00651624985 0.07784319669)
(2.581609964 0.005756190047 0.07814759761)
(2.581769943 0.005393030122 0.07830709964)
(2.581840038 0.005238160025 0.07837810367)
(2.582050085 0.004814649932 0.07858200371)
(2.582259893 0.004403439816 0.07879450172)
(2.582309961 0.004303129856 0.07884869725)
(2.59265995 0.0006231790176 0.08880479634)
(2.583770037 0.00250447006 0.08016219735)
(2.583839893 0.002367249923 0.08025539666)
(2.583739996 0.002181839896 0.08027820289)
(2.584059954 0.002147640102 0.08046510071)
(2.584069967 0.001811049995 0.08060690016)
(2.584429979 0.001699269982 0.0808679983)
(2.584510088 0.00158606004 0.08096379787)
(2.584229946 0.002244259929 0.08051799983)
(2.584300041 0.00211551995 0.08061379939)
(2.585740089 0.0007256770041 0.08219529688)
(2.585400105 0.0009257579804 0.08184950054)
(2.586740017 0.0003426629992 0.08323919773)
(2.586639881 0.0003898979921 0.08312460035)
(2.585259914 0.001251150039 0.08160810173)
(2.585340023 0.001156360027 0.0817084983)
(2.585720062 0.0008324119844 0.08213619888)
(2.584980011 0.001827980042 0.08114960045)
(2.585050106 0.001713069971 0.08124949783)
(2.585570097 0.001006660052 0.08194539696)
(2.585979939 0.0007183499984 0.08239740133)
(2.584969997 0.002123469952 0.0809950009)
(2.585069895 0.001868390013 0.08118580282)
(2.585259914 0.001523860032 0.08147989959)
(2.585400105 0.001314450055 0.08167749643)
(2.585799932 0.0008672900149 0.08218649775)
(2.585890055 0.0007907070103 0.08229140192)
(2.585030079 0.002301410073 0.08093629777)
(2.585069895 0.002165969927 0.08103170246)
(2.58671999 0.0004090139992 0.08319310099)
(2.585259914 0.001947300043 0.08126129955)
(2.58536005 0.001704190043 0.08145420253)
(2.585760117 0.001085640048 0.08205319941)
(2.586400032 0.0005699779722 0.08282549679)
(2.585690022 0.001304300036 0.08189070225)
(2.586649895 0.000469030987 0.08309999853)
(2.585419893 0.002154229907 0.0812446028)
(2.5864501 0.0005843850086 0.08286260068)
(2.586499929 0.0005987050245 0.08290120214)
(2.585700035 0.001968380064 0.08152320236)
(2.586110115 0.00109296001 0.08231720328)
(2.586319923 0.0008343220106 0.08262500167)
(2.585700035 0.002695139963 0.08107800037)
(2.58652997 0.0006983010098 0.08287700266)
(2.59265995 0.07721880078 -0.04386270046)
(2.590470076 0.07540579885 -0.04288610071)
(2.585299969 0.07124309987 -0.0402809009)
(2.585200071 0.07118880004 -0.04016590118)
(2.584899902 0.07104729861 -0.03980100155)
(2.584889889 0.07103709877 -0.03980509937)
(2.582950115 0.07045859843 -0.03693480045)
(2.580940008 0.07089229673 -0.03215099871)
(2.581010103 0.07084120065 -0.03238520026)
(2.581239939 0.07070689648 -0.03307610005)
(2.581399918 0.07063280046 -0.03352680057)
(2.581540108 0.07058399916 -0.03388439864)
(2.581609964 0.07055590302 -0.03408880159)
(2.581769943 0.07051239908 -0.03448300064)
(2.581919909 0.07048150152 -0.03483169898)
(2.582010031 0.07046630234 -0.03504230082)
(2.58220005 0.07044430077 -0.03545739874)
(2.582449913 0.07043220103 -0.03598370031)
(2.582590103 0.07043330371 -0.03626339883)
(2.582629919 0.07043450326 -0.0363406986)
(2.582720041 0.0704388991 -0.0365136005)
(2.582829952 0.07045289874 -0.03667829931)
(2.582870007 0.07045049965 -0.03679269925)
(2.583110094 0.07047919929 -0.03721399978)
(2.583189964 0.0704921037 -0.03735560179)
(2.583460093 0.07054450363 -0.03780709952)
(2.583379984 0.07052759826 -0.0376775004)
(2.583659887 0.07059240341 -0.03812479973)
(2.583590031 0.0705801025 -0.03798370063)
(2.58355999 0.07056739926 -0.03796720132)
(2.583770037 0.07062210143 -0.03829519823)
(2.583760023 0.07061930001 -0.03827980161)
(2.584069967 0.07071310282 -0.03873499855)
(2.58397007 0.07068090141 -0.03859069943)
(2.584110022 0.07072710246 -0.03879439831)
(2.584470034 0.07085759938 -0.03927959874)
(2.584500074 0.0708706975 -0.03932280093)
(2.584559917 0.07089489698 -0.03940010071)
(2.584800005 0.0709977001 -0.03970040008)
(2.585459948 0.07134509832 -0.04038130119)
(2.585419893 0.07131150365 -0.04038999975)
(2.585880041 0.07161830366 -0.04069359973)
(2.585789919 0.07154040039 -0.0407028012)
(2.586430073 0.072012797 -0.04110660031)
(2.586380005 0.07196799666 -0.04110069945)
(2.586319923 0.07191280276 -0.04109549895)
(2.586570024 0.07211939991 -0.04121020064)
(2.586519957 0.07207520306 -0.04120149836)
(2.586489916 0.07204730064 -0.04119670019)
(2.585649967 0.07147429883 -0.04047869891)
(2.585939884 0.07166840136 -0.04069039971)
(2.586639881 0.07218299806 -0.04122469947)
(2.585839987 0.07160560042 -0.04058120027)
(2.586649895 0.07220119983 -0.04114380106)
(2.585400105 0.07134660333 -0.04012300074)
(2.585979939 0.07171739638 -0.04057659954)
(2.586400032 0.07201399654 -0.04091919959)
(2.585279942 0.07127840072 -0.04000499845)
(2.586829901 0.07234539837 -0.0412691012)
(2.585890055 0.07166180015 -0.04046089947)
(2.58671999 0.07225950062 -0.04115829989)
(2.585799932 0.07160919905 -0.04034209996)
(2.585570097 0.07147009671 -0.04010089859)
(2.585340023 0.07133980095 -0.03985280171)
(2.584510088 0.07090970129 -0.03910829872)
(2.585259914 0.07130029798 -0.03972050175)
(2.58652997 0.07212279737 -0.04083380103)
(2.584429979 0.07088340074 -0.03896240145)
(2.585760117 0.07160290331 -0.04008639976)
(2.584199905 0.07079210132 -0.03868699819)
(2.585400105 0.07139199972 -0.03970040008)
(2.585259914 0.07132560015 -0.03942029923)
(2.585690022 0.07157160342 -0.0398157984)
(2.587419987 0.07283899933 -0.04153310135)
(2.583839893 0.07068689913 -0.0380776003)
(2.584300041 0.07087139785 -0.0384747982)
(2.585050106 0.07122059911 -0.03914120048)
(2.584229946 0.0708526969 -0.03831540048)
(2.584980011 0.07119160146 -0.03899170086)
(2.587610006 0.07300280035 -0.04168850183)
(2.583869934 0.07072620094 -0.03787510097)
(2.585069895 0.07124309987 -0.03897479922)
(2.58536005 0.07139349729 -0.03925120085)
(2.586859941 0.07236660272 -0.04077360034)
(2.585449934 0.07144589722 -0.03924020007)
(2.586009979 0.07177239656 -0.03980309889)
(2.584969997 0.07120549679 -0.03865849972)
(2.586499929 0.07209400088 -0.04023110121)
(2.585069895 0.07125850022 -0.03864010051)
(2.586189985 0.07188169658 -0.03980280086)
(2.587709904 0.07306630164 -0.04153539985)
(2.584739923 0.07111340016 -0.03818000108)
(2.585419893 0.07143700123 -0.03875669837)
(2.586110115 0.07182440162 -0.0395070985)
(2.586210012 0.0718813017 -0.03950630128)
(2.587949991 0.07325779647 -0.04161699861)
(2.586019993 0.07175450027 -0.03903710097)
(2.585730076 0.07158820331 -0.03855369985)
(2.586889982 0.07229329646 -0.03983680159)
(2.586999893 0.07235590369 -0.03984640166)
(2.586740017 0.07215499878 -0.03936040029)
(2.587589979 0.0728046 -0.04051490128)
(2.588589907 0.07380150259 -0.04196700081)
(2.58769989 0.07287280262 -0.04053540155)
(2.588040113 0.07318820059 -0.04103010148)
(2.588579893 0.07375840098 -0.04184339941)
(2.587579966 0.07274139673 -0.04022080079)
(2.588469982 0.0735604018 -0.0414211005)
(2.588779926 0.07391600311 -0.04191799834)
(2.588259935 0.07329910249 -0.04094649851)
(2.588690042 0.07371730357 -0.04148989916)
(2.588989973 0.07408060133 -0.04199710116)
(2.589210033 0.07425220311 -0.04208099842)
(2.585690022 0.0714956969 -0.03625949845)
(2.585949898 0.07159449905 -0.03663760051)
(2.587310076 0.07233169675 -0.03870230168)
(2.589230061 0.07421310246 -0.04195160046)
(2.589400053 0.07451140136 -0.04242140055)
(2.586169958 0.07167930156 -0.03681670129)
(2.587850094 0.07271769643 -0.0394513011)
(2.588180065 0.07300739735 -0.04000410065)
(2.588500023 0.07331989706 -0.04055109993)
(2.592420101 0.0759389028 -0.0423037)
(2.592979908 0.0773262009 -0.04383020103)
(2.582870007 0.06708800048 -0.04261590168)
(2.580940008 0.06206329912 -0.04658589885)
(2.585829973 0.07111989707 -0.04155249894)
(2.585730076 0.07100050151 -0.04154929891)
(2.585419893 0.07063449919 -0.0415625982)
(2.585299969 0.07050579786 -0.04155790061)
(2.584969997 0.07009410113 -0.04160200059)
(2.584990025 0.07012149692 -0.0415982008)
(2.584800005 0.06988050044 -0.04163559899)
(2.584290028 0.06920199841 -0.04178600013)
(2.583869934 0.06861879677 -0.04196320102)
(2.58397007 0.06876099855 -0.04191609845)
(2.582950115 0.06721580029 -0.04255159944)
(2.582449913 0.06637889892 -0.04300419986)
(2.582479954 0.06642720103 -0.0429761)
(2.581459999 0.06448619813 -0.04429959878)
(2.58137989 0.06431739777 -0.04443370178)
(2.580940008 0.06328970194 -0.0453189984)
(2.585999966 0.07130079716 -0.04156599939)
(2.585779905 0.07106269896 -0.0415485017)
(2.58562994 0.07088070363 -0.04155280069)
(2.586080074 0.07129260153 -0.04168190062)
(2.585969925 0.07116860151 -0.04166970029)
(2.586750031 0.07197330147 -0.0418776013)
(2.586129904 0.07131469995 -0.04172090068)
(2.585880041 0.07105089724 -0.04167649895)
(2.585649967 0.07079269737 -0.0416591987)
(2.585939884 0.07107309997 -0.04172150046)
(2.585570097 0.07067199796 -0.04168190062)
(2.5848701 0.06997170299 -0.0416203998)
(2.586689949 0.07188200206 -0.04188299924)
(2.585839987 0.07094720006 -0.04172160104)
(2.58468008 0.06959799677 -0.04176830128)
(2.586649895 0.0713898018 -0.04216879979)
(2.587169886 0.07205200195 -0.04225889966)
(2.587419987 0.07238820195 -0.04231389984)
(2.583770037 0.06847570091 -0.0420130007)
(2.586819887 0.07183449715 -0.04205960035)
(2.586590052 0.0714545995 -0.04207859933)
(2.5864501 0.07119560242 -0.04211129993)
(2.586319923 0.07093130052 -0.04216000065)
(2.583590031 0.0681848973 -0.04213229939)
(2.583519936 0.06810180098 -0.04215430096)
(2.583630085 0.06826739758 -0.0420897007)
(2.586199999 0.07065889984 -0.04222109914)
(2.586600065 0.07115740329 -0.04225390032)
(2.586859941 0.07149430364 -0.04228449985)
(2.587169886 0.07196240127 -0.04230450094)
(2.583379984 0.06789349765 -0.04223990068)
(2.583410025 0.06793510169 -0.04222239926)
(2.587559938 0.07240080088 -0.04243019968)
(2.583189964 0.06759899855 -0.04236920178)
(2.586499929 0.07088819891 -0.04231970012)
(2.586889982 0.07140170038 -0.04235329852)
(2.587270021 0.0719230026 -0.04240329936)
(2.582999945 0.06729699671 -0.042511601)
(2.586189985 0.07041099668 -0.04235000163)
(2.587100029 0.0716169998 -0.04241079837)
(2.587470055 0.07214680314 -0.04246459901)
(2.587709904 0.07250379771 -0.04250960052)
(2.582720041 0.06684119999 -0.04274500161)
(2.587059975 0.07148390263 -0.04244029894)
(2.582629919 0.0666892007 -0.04282779992)
(2.586110115 0.07012630254 -0.04244820029)
(2.587270021 0.07170630246 -0.04249769822)
(2.582370043 0.06623160094 -0.04309149832)
(2.585939884 0.06980899721 -0.04250960052)
(2.586210012 0.07015410066 -0.04249789938)
(2.586990118 0.07121229917 -0.0425097011)
(2.587949991 0.07267030329 -0.04263459891)
(2.586179972 0.07000800222 -0.04255339876)
(2.586960077 0.07107380033 -0.04254949838)
(2.58791995 0.072542198 -0.04265569896)
(2.582040071 0.06558980048 -0.04350750148)
(2.582149982 0.06584130228 -0.04333379865)
(2.586019993 0.06968440115 -0.04262270033)
(2.587179899 0.07129830122 -0.04260250181)
(2.587660074 0.07203800231 -0.04264609888)
(2.586910009 0.07079079747 -0.04263940081)
(2.587869883 0.07228069752 -0.04270749912)
(2.581700087 0.06495659798 -0.04394600168)
(2.586889982 0.07064639777 -0.04268940166)
(2.587850094 0.07214730233 -0.04273809865)
(2.585839987 0.06904520094 -0.0428500995)
(2.585969925 0.06922339648 -0.04282920063)
(2.587719917 0.07182029635 -0.04276069999)
(2.588059902 0.07239759713 -0.04280040041)
(2.588390112 0.07298050076 -0.04285920039)
(2.587589979 0.0714892 -0.04279319942)
(2.586349964 0.06945410371 -0.04291750118)
(2.588040113 0.07212720066 -0.04286779836)
(2.588259935 0.07252120227 -0.04289599881)
(2.588579893 0.07311669737 -0.04295489937)
(2.587579966 0.07120289654 -0.04288550094)
(2.588469982 0.07278569788 -0.04296239838)
(2.588979959 0.07366780192 -0.04310530052)
(2.586740017 0.06970140338 -0.04300529882)
(2.586859941 0.06989230216 -0.04298850149)
(2.588469982 0.07265190035 -0.04299459979)
(2.588779926 0.07326000184 -0.04305420071)
(2.587470055 0.07071059942 -0.04299550131)
(2.588690042 0.0727899 -0.04309609905)
(2.588989973 0.07341080159 -0.04315710068)
(2.587379932 0.0702041015 -0.04313009977)
(2.587860107 0.07085730135 -0.04314969853)
(2.58829999 0.07168109715 -0.04314060137)
(2.586829901 0.06888359785 -0.04339870065)
(2.587310076 0.0696830973 -0.04328989983)
(2.587850094 0.07052469999 -0.04324970022)
(2.588180065 0.07114820182 -0.04322420061)
(2.58920002 0.07326810062 -0.04330319911)
(2.589940071 0.07442290336 -0.04359389842)
(2.589129925 0.07243169844 -0.04340419918)
(2.589730024 0.07362770289 -0.04354440048)
(2.589960098 0.07394900173 -0.04363210127)
(2.58991003 0.07322710007 -0.0436684005)
(2.581310034 0.06415610015 -0.04456479847)
(2.581609964 0.06479970366 -0.04405879974)
(2.581769943 0.06511940062 -0.04382399842)
(2.581840038 0.06525830179 -0.04372540116)
(2.582050085 0.0656466037 -0.04346060008)
(2.582259893 0.06603629887 -0.04321070015)
(2.582309961 0.06613340229 -0.04315099865)
(2.59265995 0.07659559697 -0.0449420996)
(2.583770037 0.06817019731 -0.04224999994)
(2.583839893 0.06831959635 -0.04217780009)
(2.583739996 0.06843200326 -0.04202859849)
(2.584059954 0.06861100346 -0.04209249839)
(2.584069967 0.06890209764 -0.04187180102)
(2.584429979 0.06918410212 -0.04190560058)
(2.584510088 0.06932359934 -0.04185539857)
(2.584229946 0.06860850006 -0.04220259935)
(2.584300041 0.06875590235 -0.04213900119)
(2.585740089 0.07082030177 -0.04172610119)
(2.585400105 0.07042080164 -0.0417264998)
(2.586740017 0.0719159022 -0.04191629961)
(2.586639881 0.07179310173 -0.04190000147)
(2.585259914 0.07004909962 -0.04188759997)
(2.585340023 0.07018339634 -0.04185570031)
(2.585720062 0.07071579993 -0.04178899899)
(2.584980011 0.06936360151 -0.04215789959)
(2.585050106 0.06950759888 -0.04210830107)
(2.585570097 0.07046350092 -0.04184449837)
(2.585979939 0.0709991008 -0.04182080179)
(2.584969997 0.06908199936 -0.04233650118)
(2.585069895 0.06937470287 -0.04221099988)
(2.585259914 0.0698017031 -0.04205960035)
(2.585400105 0.07007750124 -0.04197710007)
(2.585799932 0.07074189931 -0.04184430093)
(2.585890055 0.07087100297 -0.04183049873)
(2.58671999 0.0718427971 -0.04195079952)
(2.585259914 0.06940069795 -0.04231709987)
(2.58536005 0.06968930364 -0.04220300168)
(2.585760117 0.07051730156 -0.04196679965)
(2.586400032 0.07144399732 -0.04190640152)
(2.585690022 0.07026729733 -0.04207490012)
(2.586649895 0.07173220068 -0.0419562012)
(2.585419893 0.0692827031 -0.0424879007)
(2.5864501 0.07146889716 -0.04193739966)
(2.586499929 0.07149519771 -0.04196909815)
(2.585700035 0.0696170032 -0.04246630147)
(2.586110115 0.07074230164 -0.04210520163)
(2.586319923 0.07113820314 -0.04203509912)
(2.58652997 0.07142449915 -0.04204329848)
(2.59265995 -0.07659559697 -0.0449420996)
(2.590470076 -0.07484339923 -0.04386030138)
(2.585299969 -0.07050579786 -0.04155790061)
(2.585200071 -0.07037910074 -0.04156839848)
(2.584899902 -0.0699922964 -0.04162830114)
(2.584889889 -0.06999070197 -0.04161740094)
(2.582950115 -0.06721580029 -0.04255149886)
(2.580940008 -0.06328970194 -0.0453189984)
(2.581010103 -0.06346700341 -0.04515760019)
(2.581239939 -0.0639982 -0.04469589889)
(2.581399918 -0.06435149908 -0.04440639913)
(2.581540108 -0.06463679671 -0.04418529943)
(2.581609964 -0.06479970366 -0.04405879974)
(2.581769943 -0.06511940062 -0.04382399842)
(2.581919909 -0.0654058978 -0.0436228998)
(2.582040071 -0.06558980048 -0.04350750148)
(2.582010031 -0.06558059901 -0.0435044989)
(2.58220005 -0.06592909992 -0.04327790067)
(2.582299948 -0.06610289961 -0.04316969961)
(2.582449913 -0.06637889892 -0.04300419986)
(2.582590103 -0.06662169844 -0.04286529869)
(2.582629919 -0.0666892007 -0.04282779992)
(2.582720041 -0.06684119999 -0.04274500161)
(2.582829952 -0.0669908002 -0.0426748991)
(2.582870007 -0.06708870083 -0.04261559993)
(2.583110094 -0.06746789813 -0.04242980108)
(2.583189964 -0.06759689748 -0.04237009957)
(2.583460093 -0.06801410019 -0.04218969867)
(2.583379984 -0.06789349765 -0.04223990068)
(2.583659887 -0.06831330061 -0.04207240045)
(2.583590031 -0.0681848973 -0.04213229939)
(2.58355999 -0.06816429645 -0.04212959856)
(2.583770037 -0.06847570091 -0.0420130007)
(2.583760023 -0.06846100092 -0.0420182012)
(2.584069967 -0.06890209764 -0.04187180102)
(2.58397007 -0.06876099855 -0.04191609845)
(2.584110022 -0.06896039844 -0.04185419902)
(2.584470034 -0.06944590062 -0.04172470048)
(2.584500074 -0.0694898963 -0.04171440005)
(2.584559917 -0.06956899911 -0.04169680178)
(2.584800005 -0.06988040358 -0.04163559899)
(2.585459948 -0.07064379752 -0.04159599915)
(2.585419893 -0.07063449919 -0.0415625982)
(2.586390018 -0.07171239704 -0.0416369997)
(2.585880041 -0.07105089724 -0.04167649895)
(2.585789919 -0.07101990283 -0.04160439968)
(2.586380005 -0.07157819718 -0.04177580029)
(2.586319923 -0.07154610008 -0.04173050076)
(2.586289883 -0.07153200358 -0.04170890152)
(2.586570024 -0.07174880058 -0.04185210168)
(2.586519957 -0.07171919942 -0.04181810096)
(2.586489916 -0.07170099765 -0.04179640114)
(2.585649967 -0.07079269737 -0.0416591987)
(2.585939884 -0.07107309997 -0.04172150046)
(2.586639881 -0.07179310173 -0.04190000147)
(2.585839987 -0.07094720006 -0.04172160104)
(2.586649895 -0.07173220068 -0.0419562012)
(2.585400105 -0.07042080164 -0.0417264998)
(2.586400032 -0.07144399732 -0.04190640152)
(2.58694005 -0.07205139846 -0.0420400016)
(2.585279942 -0.07028450072 -0.04172639921)
(2.586829901 -0.07191280276 -0.04201839864)
(2.585890055 -0.07087100297 -0.04183049873)
(2.58671999 -0.07177390158 -0.04199939966)
(2.585799932 -0.07074189931 -0.04184430093)
(2.585570097 -0.07046350092 -0.04184449837)
(2.585340023 -0.07018339634 -0.04185570031)
(2.584510088 -0.06932359934 -0.04185539857)
(2.585259914 -0.07004909962 -0.04188759997)
(2.58652997 -0.07142449915 -0.04204329848)
(2.584429979 -0.06918410212 -0.04190560058)
(2.585760117 -0.07051730156 -0.04196679965)
(2.584199905 -0.06889999658 -0.04196419939)
(2.585400105 -0.07007750124 -0.04197710007)
(2.585259914 -0.0698017031 -0.04205960035)
(2.585690022 -0.07026729733 -0.04207490012)
(2.587419987 -0.07238820195 -0.04231389984)
(2.583839893 -0.06831959635 -0.04217780009)
(2.584300041 -0.06875590235 -0.04213900119)
(2.585050106 -0.06950759888 -0.04210830107)
(2.584229946 -0.06860850006 -0.04220259935)
(2.584980011 -0.06936360151 -0.04215789959)
(2.587610006 -0.07260470092 -0.04237800092)
(2.585069895 -0.06937470287 -0.04221099988)
(2.58536005 -0.06968930364 -0.04220300168)
(2.586859941 -0.07149430364 -0.04228449985)
(2.585449934 -0.06970590353 -0.04225390032)
(2.586009979 -0.07035669684 -0.04225509986)
(2.584969997 -0.06908199936 -0.04233650118)
(2.586499929 -0.07088819891 -0.04231970012)
(2.585069895 -0.06909249723 -0.04239159822)
(2.586189985 -0.07041099668 -0.04235000163)
(2.587709904 -0.07250379771 -0.04250960052)
(2.584739923 -0.06862159818 -0.04249599949)
(2.585419893 -0.0692827031 -0.0424879007)
(2.586110115 -0.07012630254 -0.04244820029)
(2.586210012 -0.07015410066 -0.04249789938)
(2.587949991 -0.07267030329 -0.04263459891)
(2.586019993 -0.06968440115 -0.04262270033)