/*--------------------------------*- C++ -*----------------------------------*\
  =========                 |
  \\      /  F ield         | OpenFOAM: The Open Source CFD Toolbox
   \\    /   O peration     | Website:  https://openfoam.org
    \\  /    A nd           | Version:  11
     \\/     M anipulation  |
\*---------------------------------------------------------------------------*/
FoamFile
{
    format      ascii;
    class       volVectorField;
    object      U;
}
// * * * * * * * * * * * * * * * * * * * * * * * * * * * * * * * * * * * * * //

#include "../parameters.cs"

dimensions      [0 1 -1 0 0 0 0];




alpha   #calc "$AoA * 3.14159265358979323846 / 180.0"; // 10 degrees in radians

a       #calc "sqrt($gamma * $R * $T)";
U       #calc "$Ma * $a";

Ux      #calc "$U * cos($alpha * 1.0)";
Uy      #calc "$U * sin($alpha * 1.0)";
Uz      0;




internalField   uniform ($Ux $Uy $Uz);

boundaryField
{
    inlet
    {
	    type            freestreamVelocity;
        value           uniform ($Ux $Uy $Uz);
        freestreamValue           uniform ($Ux $Uy $Uz);

    }

    outlet
    {
	    type            freestreamVelocity;
        value           uniform ($Ux $Uy $Uz);
        freestreamValue           uniform ($Ux $Uy $Uz);
    }

    sides
    {
        type            freestreamVelocity;
        value           uniform ($Ux $Uy $Uz);
        freestreamValue           uniform ($Ux $Uy $Uz);

    }

    rocket
    {
        type            noSlip;
    }
}

// ************************************************************************* //
